<?xml version="1.0" encoding="UTF-8"?>

<!-- generated on 04/21/20 13:16:48 by Eclipse SUMO netgenerate Version 1.3.1
<configuration xmlns:xsi="http://www.w3.org/2001/XMLSchema-instance" xsi:noNamespaceSchemaLocation="http://sumo.dlr.de/xsd/netgenerateConfiguration.xsd">

    <grid_network>
        <grid value="true"/>
        <grid.x-number value="3"/>
        <grid.y-number value="3"/>
        <grid.x-length value="1000"/>
        <grid.y-length value="1000"/>
        <grid.attach-length value="1000"/>
    </grid_network>

    <output>
        <output-file value="E:\Traffic_Control_Benchmark\sumocfg\3X3grid\3X3grid.net.xml"/>
        <plain-output-prefix value="E:\Traffic_Control_Benchmark\sumocfg\3X3grid\3X3grid"/>
    </output>

    <building_defaults>
        <default.lanenumber value="2"/>
    </building_defaults>

    <tls_building>
        <tls.guess value="true"/>
        <tls.default-type value="static"/>
    </tls_building>

    <junctions>
        <check-lane-foes.all value="true"/>
    </junctions>

</configuration>
-->

<nodes version="1.3" xmlns:xsi="http://www.w3.org/2001/XMLSchema-instance" xsi:noNamespaceSchemaLocation="http://sumo.dlr.de/xsd/nodes_file.xsd">
    <location netOffset="0.00,0.00" convBoundary="0.00,0.00,4000.00,4000.00" origBoundary="0.00,0.00,4000.00,4000.00" projParameter="!"/>

    <node id="A0" x="1000.00" y="1000.00" type="traffic_light" tl="A0"/>
    <node id="A1" x="1000.00" y="2000.00" type="traffic_light" tl="A1"/>
    <node id="A2" x="1000.00" y="3000.00" type="traffic_light" tl="A2"/>
    <node id="B0" x="2000.00" y="1000.00" type="traffic_light" tl="B0"/>
    <node id="B1" x="2000.00" y="2000.00" type="traffic_light" tl="B1"/>
    <node id="B2" x="2000.00" y="3000.00" type="traffic_light" tl="B2"/>
    <node id="C0" x="3000.00" y="1000.00" type="traffic_light" tl="C0"/>
    <node id="C1" x="3000.00" y="2000.00" type="traffic_light" tl="C1"/>
    <node id="C2" x="3000.00" y="3000.00" type="traffic_light" tl="C2"/>
    <node id="bottom0" x="1000.00" y="0.00" type="priority"/>
    <node id="bottom1" x="2000.00" y="0.00" type="priority"/>
    <node id="bottom2" x="3000.00" y="0.00" type="priority"/>
    <node id="left0" x="0.00" y="1000.00" type="priority"/>
    <node id="left1" x="0.00" y="2000.00" type="priority"/>
    <node id="left2" x="0.00" y="3000.00" type="priority"/>
    <node id="right0" x="4000.00" y="1000.00" type="priority"/>
    <node id="right1" x="4000.00" y="2000.00" type="priority"/>
    <node id="right2" x="4000.00" y="3000.00" type="priority"/>
    <node id="top0" x="1000.00" y="4000.00" type="priority"/>
    <node id="top1" x="2000.00" y="4000.00" type="priority"/>
    <node id="top2" x="3000.00" y="4000.00" type="priority"/>
</nodes>
