<?xml version="1.0" encoding="UTF-8"?>

<!-- generated on 04/22/20 13:09:57 by Eclipse SUMO netgenerate Version 1.3.1
<configuration xmlns:xsi="http://www.w3.org/2001/XMLSchema-instance" xsi:noNamespaceSchemaLocation="http://sumo.dlr.de/xsd/netgenerateConfiguration.xsd">

    <grid_network>
        <grid value="true"/>
        <grid.x-number value="5"/>
        <grid.y-number value="5"/>
        <grid.x-length value="1000"/>
        <grid.y-length value="1000"/>
        <grid.attach-length value="1000"/>
    </grid_network>

    <output>
        <output-file value="E:\Traffic_Control_Benchmark\sumocfg\5X5grid\5X5grid.net.xml"/>
        <plain-output-prefix value="E:\Traffic_Control_Benchmark\sumocfg\5X5grid\5X5grid"/>
    </output>

    <building_defaults>
        <default.lanenumber value="2"/>
    </building_defaults>

    <tls_building>
        <tls.guess value="true"/>
        <tls.default-type value="static"/>
    </tls_building>

    <junctions>
        <check-lane-foes.all value="true"/>
    </junctions>

</configuration>
-->

<nodes version="1.3" xmlns:xsi="http://www.w3.org/2001/XMLSchema-instance" xsi:noNamespaceSchemaLocation="http://sumo.dlr.de/xsd/nodes_file.xsd">
    <location netOffset="0.00,0.00" convBoundary="0.00,0.00,6000.00,6000.00" origBoundary="0.00,0.00,6000.00,6000.00" projParameter="!"/>

    <node id="A0" x="1000.00" y="1000.00" type="traffic_light" tl="A0"/>
    <node id="A1" x="1000.00" y="2000.00" type="traffic_light" tl="A1"/>
    <node id="A2" x="1000.00" y="3000.00" type="traffic_light" tl="A2"/>
    <node id="A3" x="1000.00" y="4000.00" type="traffic_light" tl="A3"/>
    <node id="A4" x="1000.00" y="5000.00" type="traffic_light" tl="A4"/>
    <node id="B0" x="2000.00" y="1000.00" type="traffic_light" tl="B0"/>
    <node id="B1" x="2000.00" y="2000.00" type="traffic_light" tl="B1"/>
    <node id="B2" x="2000.00" y="3000.00" type="traffic_light" tl="B2"/>
    <node id="B3" x="2000.00" y="4000.00" type="traffic_light" tl="B3"/>
    <node id="B4" x="2000.00" y="5000.00" type="traffic_light" tl="B4"/>
    <node id="C0" x="3000.00" y="1000.00" type="traffic_light" tl="C0"/>
    <node id="C1" x="3000.00" y="2000.00" type="traffic_light" tl="C1"/>
    <node id="C2" x="3000.00" y="3000.00" type="traffic_light" tl="C2"/>
    <node id="C3" x="3000.00" y="4000.00" type="traffic_light" tl="C3"/>
    <node id="C4" x="3000.00" y="5000.00" type="traffic_light" tl="C4"/>
    <node id="D0" x="4000.00" y="1000.00" type="traffic_light" tl="D0"/>
    <node id="D1" x="4000.00" y="2000.00" type="traffic_light" tl="D1"/>
    <node id="D2" x="4000.00" y="3000.00" type="traffic_light" tl="D2"/>
    <node id="D3" x="4000.00" y="4000.00" type="traffic_light" tl="D3"/>
    <node id="D4" x="4000.00" y="5000.00" type="traffic_light" tl="D4"/>
    <node id="E0" x="5000.00" y="1000.00" type="traffic_light" tl="E0"/>
    <node id="E1" x="5000.00" y="2000.00" type="traffic_light" tl="E1"/>
    <node id="E2" x="5000.00" y="3000.00" type="traffic_light" tl="E2"/>
    <node id="E3" x="5000.00" y="4000.00" type="traffic_light" tl="E3"/>
    <node id="E4" x="5000.00" y="5000.00" type="traffic_light" tl="E4"/>
    <node id="bottom0" x="1000.00" y="0.00" type="priority"/>
    <node id="bottom1" x="2000.00" y="0.00" type="priority"/>
    <node id="bottom2" x="3000.00" y="0.00" type="priority"/>
    <node id="bottom3" x="4000.00" y="0.00" type="priority"/>
    <node id="bottom4" x="5000.00" y="0.00" type="priority"/>
    <node id="left0" x="0.00" y="1000.00" type="priority"/>
    <node id="left1" x="0.00" y="2000.00" type="priority"/>
    <node id="left2" x="0.00" y="3000.00" type="priority"/>
    <node id="left3" x="0.00" y="4000.00" type="priority"/>
    <node id="left4" x="0.00" y="5000.00" type="priority"/>
    <node id="right0" x="6000.00" y="1000.00" type="priority"/>
    <node id="right1" x="6000.00" y="2000.00" type="priority"/>
    <node id="right2" x="6000.00" y="3000.00" type="priority"/>
    <node id="right3" x="6000.00" y="4000.00" type="priority"/>
    <node id="right4" x="6000.00" y="5000.00" type="priority"/>
    <node id="top0" x="1000.00" y="6000.00" type="priority"/>
    <node id="top1" x="2000.00" y="6000.00" type="priority"/>
    <node id="top2" x="3000.00" y="6000.00" type="priority"/>
    <node id="top3" x="4000.00" y="6000.00" type="priority"/>
    <node id="top4" x="5000.00" y="6000.00" type="priority"/>
</nodes>
