<?xml version='1.0' encoding='utf-8'?>
<net xmlns:xsi="http://www.w3.org/2001/XMLSchema-instance" checkLaneFoesAll="1" junctionCornerDetail="5" limitTurnSpeed="5.50" version="1.3" xsi:noNamespaceSchemaLocation="http://sumo.dlr.de/xsd/net_file.xsd">

    <location convBoundary="0.00,0.00,4000.00,4000.00" netOffset="0.00,0.00" origBoundary="0.00,0.00,4000.00,4000.00" projParameter="!" />

    <edge function="internal" id=":A0_0">
        <lane id=":A0_0_0" index="0" length="9.03" shape="995.20,1010.40 994.85,1007.95 993.80,1006.20 992.05,1005.15 989.60,1004.80" speed="6.51" />
    </edge>
    <edge function="internal" id=":A0_1">
        <lane id=":A0_1_0" index="0" length="20.80" shape="995.20,1010.40 995.20,989.60" speed="13.89" />
        <lane id=":A0_1_1" index="1" length="20.80" shape="998.40,1010.40 998.40,989.60" speed="13.89" />
    </edge>
    <edge function="internal" id=":A0_3">
        <lane id=":A0_3_0" index="0" length="6.96" shape="998.40,1010.40 999.15,1005.15 1000.00,1003.73" speed="9.26" />
    </edge>
    <edge function="internal" id=":A0_4">
        <lane id=":A0_4_0" index="0" length="2.34" shape="998.40,1010.40 999.20,1009.20 1000.00,1008.80" speed="3.65" />
    </edge>
    <edge function="internal" id=":A0_20">
        <lane id=":A0_20_0" index="0" length="12.40" shape="1000.00,1003.73 1001.40,1001.40 1005.15,999.15 1010.40,998.40" speed="9.26" />
    </edge>
    <edge function="internal" id=":A0_21">
        <lane id=":A0_21_0" index="0" length="2.34" shape="1000.00,1008.80 1000.80,1009.20 1001.60,1010.40" speed="3.65" />
    </edge>
    <edge function="internal" id=":A0_5">
        <lane id=":A0_5_0" index="0" length="9.03" shape="1010.40,1004.80 1007.95,1005.15 1006.20,1006.20 1005.15,1007.95 1004.80,1010.40" speed="6.51" />
    </edge>
    <edge function="internal" id=":A0_6">
        <lane id=":A0_6_0" index="0" length="20.80" shape="1010.40,1004.80 989.60,1004.80" speed="13.89" />
        <lane id=":A0_6_1" index="1" length="20.80" shape="1010.40,1001.60 989.60,1001.60" speed="13.89" />
    </edge>
    <edge function="internal" id=":A0_8">
        <lane id=":A0_8_0" index="0" length="6.96" shape="1010.40,1001.60 1005.15,1000.85 1003.73,1000.00" speed="9.26" />
    </edge>
    <edge function="internal" id=":A0_9">
        <lane id=":A0_9_0" index="0" length="2.34" shape="1010.40,1001.60 1009.20,1000.80 1008.80,1000.00" speed="3.65" />
    </edge>
    <edge function="internal" id=":A0_22">
        <lane id=":A0_22_0" index="0" length="12.40" shape="1003.73,1000.00 1001.40,998.60 999.15,994.85 998.40,989.60" speed="9.26" />
    </edge>
    <edge function="internal" id=":A0_23">
        <lane id=":A0_23_0" index="0" length="2.34" shape="1008.80,1000.00 1009.20,999.20 1010.40,998.40" speed="3.65" />
    </edge>
    <edge function="internal" id=":A0_10">
        <lane id=":A0_10_0" index="0" length="9.03" shape="1004.80,989.60 1005.15,992.05 1006.20,993.80 1007.95,994.85 1010.40,995.20" speed="6.51" />
    </edge>
    <edge function="internal" id=":A0_11">
        <lane id=":A0_11_0" index="0" length="20.80" shape="1004.80,989.60 1004.80,1010.40" speed="13.89" />
        <lane id=":A0_11_1" index="1" length="20.80" shape="1001.60,989.60 1001.60,1010.40" speed="13.89" />
    </edge>
    <edge function="internal" id=":A0_13">
        <lane id=":A0_13_0" index="0" length="6.96" shape="1001.60,989.60 1000.85,994.85 1000.00,996.27" speed="9.26" />
    </edge>
    <edge function="internal" id=":A0_14">
        <lane id=":A0_14_0" index="0" length="2.34" shape="1001.60,989.60 1000.80,990.80 1000.00,991.20" speed="3.65" />
    </edge>
    <edge function="internal" id=":A0_24">
        <lane id=":A0_24_0" index="0" length="12.40" shape="1000.00,996.27 998.60,998.60 994.85,1000.85 989.60,1001.60" speed="9.26" />
    </edge>
    <edge function="internal" id=":A0_25">
        <lane id=":A0_25_0" index="0" length="2.34" shape="1000.00,991.20 999.20,990.80 998.40,989.60" speed="3.65" />
    </edge>
    <edge function="internal" id=":A0_15">
        <lane id=":A0_15_0" index="0" length="9.03" shape="989.60,995.20 992.05,994.85 993.80,993.80 994.85,992.05 995.20,989.60" speed="6.51" />
    </edge>
    <edge function="internal" id=":A0_16">
        <lane id=":A0_16_0" index="0" length="20.80" shape="989.60,995.20 1010.40,995.20" speed="13.89" />
        <lane id=":A0_16_1" index="1" length="20.80" shape="989.60,998.40 1010.40,998.40" speed="13.89" />
    </edge>
    <edge function="internal" id=":A0_18">
        <lane id=":A0_18_0" index="0" length="6.96" shape="989.60,998.40 994.85,999.15 996.27,1000.00" speed="9.26" />
    </edge>
    <edge function="internal" id=":A0_19">
        <lane id=":A0_19_0" index="0" length="2.34" shape="989.60,998.40 990.80,999.20 991.20,1000.00" speed="3.65" />
    </edge>
    <edge function="internal" id=":A0_26">
        <lane id=":A0_26_0" index="0" length="12.40" shape="996.27,1000.00 998.60,1001.40 1000.85,1005.15 1001.60,1010.40" speed="9.26" />
    </edge>
    <edge function="internal" id=":A0_27">
        <lane id=":A0_27_0" index="0" length="2.34" shape="991.20,1000.00 990.80,1000.80 989.60,1001.60" speed="3.65" />
    </edge>
    <edge function="internal" id=":A1_0">
        <lane id=":A1_0_0" index="0" length="9.03" shape="995.20,2010.40 994.85,2007.95 993.80,2006.20 992.05,2005.15 989.60,2004.80" speed="6.51" />
    </edge>
    <edge function="internal" id=":A1_1">
        <lane id=":A1_1_0" index="0" length="20.80" shape="995.20,2010.40 995.20,1989.60" speed="13.89" />
        <lane id=":A1_1_1" index="1" length="20.80" shape="998.40,2010.40 998.40,1989.60" speed="13.89" />
    </edge>
    <edge function="internal" id=":A1_3">
        <lane id=":A1_3_0" index="0" length="6.96" shape="998.40,2010.40 999.15,2005.15 1000.00,2003.73" speed="9.26" />
    </edge>
    <edge function="internal" id=":A1_4">
        <lane id=":A1_4_0" index="0" length="2.34" shape="998.40,2010.40 999.20,2009.20 1000.00,2008.80" speed="3.65" />
    </edge>
    <edge function="internal" id=":A1_20">
        <lane id=":A1_20_0" index="0" length="12.40" shape="1000.00,2003.73 1001.40,2001.40 1005.15,1999.15 1010.40,1998.40" speed="9.26" />
    </edge>
    <edge function="internal" id=":A1_21">
        <lane id=":A1_21_0" index="0" length="2.34" shape="1000.00,2008.80 1000.80,2009.20 1001.60,2010.40" speed="3.65" />
    </edge>
    <edge function="internal" id=":A1_5">
        <lane id=":A1_5_0" index="0" length="9.03" shape="1010.40,2004.80 1007.95,2005.15 1006.20,2006.20 1005.15,2007.95 1004.80,2010.40" speed="6.51" />
    </edge>
    <edge function="internal" id=":A1_6">
        <lane id=":A1_6_0" index="0" length="20.80" shape="1010.40,2004.80 989.60,2004.80" speed="13.89" />
        <lane id=":A1_6_1" index="1" length="20.80" shape="1010.40,2001.60 989.60,2001.60" speed="13.89" />
    </edge>
    <edge function="internal" id=":A1_8">
        <lane id=":A1_8_0" index="0" length="6.96" shape="1010.40,2001.60 1005.15,2000.85 1003.73,2000.00" speed="9.26" />
    </edge>
    <edge function="internal" id=":A1_9">
        <lane id=":A1_9_0" index="0" length="2.34" shape="1010.40,2001.60 1009.20,2000.80 1008.80,2000.00" speed="3.65" />
    </edge>
    <edge function="internal" id=":A1_22">
        <lane id=":A1_22_0" index="0" length="12.40" shape="1003.73,2000.00 1001.40,1998.60 999.15,1994.85 998.40,1989.60" speed="9.26" />
    </edge>
    <edge function="internal" id=":A1_23">
        <lane id=":A1_23_0" index="0" length="2.34" shape="1008.80,2000.00 1009.20,1999.20 1010.40,1998.40" speed="3.65" />
    </edge>
    <edge function="internal" id=":A1_10">
        <lane id=":A1_10_0" index="0" length="9.03" shape="1004.80,1989.60 1005.15,1992.05 1006.20,1993.80 1007.95,1994.85 1010.40,1995.20" speed="6.51" />
    </edge>
    <edge function="internal" id=":A1_11">
        <lane id=":A1_11_0" index="0" length="20.80" shape="1004.80,1989.60 1004.80,2010.40" speed="13.89" />
        <lane id=":A1_11_1" index="1" length="20.80" shape="1001.60,1989.60 1001.60,2010.40" speed="13.89" />
    </edge>
    <edge function="internal" id=":A1_13">
        <lane id=":A1_13_0" index="0" length="6.96" shape="1001.60,1989.60 1000.85,1994.85 1000.00,1996.27" speed="9.26" />
    </edge>
    <edge function="internal" id=":A1_14">
        <lane id=":A1_14_0" index="0" length="2.34" shape="1001.60,1989.60 1000.80,1990.80 1000.00,1991.20" speed="3.65" />
    </edge>
    <edge function="internal" id=":A1_24">
        <lane id=":A1_24_0" index="0" length="12.40" shape="1000.00,1996.27 998.60,1998.60 994.85,2000.85 989.60,2001.60" speed="9.26" />
    </edge>
    <edge function="internal" id=":A1_25">
        <lane id=":A1_25_0" index="0" length="2.34" shape="1000.00,1991.20 999.20,1990.80 998.40,1989.60" speed="3.65" />
    </edge>
    <edge function="internal" id=":A1_15">
        <lane id=":A1_15_0" index="0" length="9.03" shape="989.60,1995.20 992.05,1994.85 993.80,1993.80 994.85,1992.05 995.20,1989.60" speed="6.51" />
    </edge>
    <edge function="internal" id=":A1_16">
        <lane id=":A1_16_0" index="0" length="20.80" shape="989.60,1995.20 1010.40,1995.20" speed="13.89" />
        <lane id=":A1_16_1" index="1" length="20.80" shape="989.60,1998.40 1010.40,1998.40" speed="13.89" />
    </edge>
    <edge function="internal" id=":A1_18">
        <lane id=":A1_18_0" index="0" length="6.96" shape="989.60,1998.40 994.85,1999.15 996.27,2000.00" speed="9.26" />
    </edge>
    <edge function="internal" id=":A1_19">
        <lane id=":A1_19_0" index="0" length="2.34" shape="989.60,1998.40 990.80,1999.20 991.20,2000.00" speed="3.65" />
    </edge>
    <edge function="internal" id=":A1_26">
        <lane id=":A1_26_0" index="0" length="12.40" shape="996.27,2000.00 998.60,2001.40 1000.85,2005.15 1001.60,2010.40" speed="9.26" />
    </edge>
    <edge function="internal" id=":A1_27">
        <lane id=":A1_27_0" index="0" length="2.34" shape="991.20,2000.00 990.80,2000.80 989.60,2001.60" speed="3.65" />
    </edge>
    <edge function="internal" id=":A2_0">
        <lane id=":A2_0_0" index="0" length="9.03" shape="995.20,3010.40 994.85,3007.95 993.80,3006.20 992.05,3005.15 989.60,3004.80" speed="6.51" />
    </edge>
    <edge function="internal" id=":A2_1">
        <lane id=":A2_1_0" index="0" length="20.80" shape="995.20,3010.40 995.20,2989.60" speed="13.89" />
        <lane id=":A2_1_1" index="1" length="20.80" shape="998.40,3010.40 998.40,2989.60" speed="13.89" />
    </edge>
    <edge function="internal" id=":A2_3">
        <lane id=":A2_3_0" index="0" length="6.96" shape="998.40,3010.40 999.15,3005.15 1000.00,3003.73" speed="9.26" />
    </edge>
    <edge function="internal" id=":A2_4">
        <lane id=":A2_4_0" index="0" length="2.34" shape="998.40,3010.40 999.20,3009.20 1000.00,3008.80" speed="3.65" />
    </edge>
    <edge function="internal" id=":A2_20">
        <lane id=":A2_20_0" index="0" length="12.40" shape="1000.00,3003.73 1001.40,3001.40 1005.15,2999.15 1010.40,2998.40" speed="9.26" />
    </edge>
    <edge function="internal" id=":A2_21">
        <lane id=":A2_21_0" index="0" length="2.34" shape="1000.00,3008.80 1000.80,3009.20 1001.60,3010.40" speed="3.65" />
    </edge>
    <edge function="internal" id=":A2_5">
        <lane id=":A2_5_0" index="0" length="9.03" shape="1010.40,3004.80 1007.95,3005.15 1006.20,3006.20 1005.15,3007.95 1004.80,3010.40" speed="6.51" />
    </edge>
    <edge function="internal" id=":A2_6">
        <lane id=":A2_6_0" index="0" length="20.80" shape="1010.40,3004.80 989.60,3004.80" speed="13.89" />
        <lane id=":A2_6_1" index="1" length="20.80" shape="1010.40,3001.60 989.60,3001.60" speed="13.89" />
    </edge>
    <edge function="internal" id=":A2_8">
        <lane id=":A2_8_0" index="0" length="6.96" shape="1010.40,3001.60 1005.15,3000.85 1003.73,3000.00" speed="9.26" />
    </edge>
    <edge function="internal" id=":A2_9">
        <lane id=":A2_9_0" index="0" length="2.34" shape="1010.40,3001.60 1009.20,3000.80 1008.80,3000.00" speed="3.65" />
    </edge>
    <edge function="internal" id=":A2_22">
        <lane id=":A2_22_0" index="0" length="12.40" shape="1003.73,3000.00 1001.40,2998.60 999.15,2994.85 998.40,2989.60" speed="9.26" />
    </edge>
    <edge function="internal" id=":A2_23">
        <lane id=":A2_23_0" index="0" length="2.34" shape="1008.80,3000.00 1009.20,2999.20 1010.40,2998.40" speed="3.65" />
    </edge>
    <edge function="internal" id=":A2_10">
        <lane id=":A2_10_0" index="0" length="9.03" shape="1004.80,2989.60 1005.15,2992.05 1006.20,2993.80 1007.95,2994.85 1010.40,2995.20" speed="6.51" />
    </edge>
    <edge function="internal" id=":A2_11">
        <lane id=":A2_11_0" index="0" length="20.80" shape="1004.80,2989.60 1004.80,3010.40" speed="13.89" />
        <lane id=":A2_11_1" index="1" length="20.80" shape="1001.60,2989.60 1001.60,3010.40" speed="13.89" />
    </edge>
    <edge function="internal" id=":A2_13">
        <lane id=":A2_13_0" index="0" length="6.96" shape="1001.60,2989.60 1000.85,2994.85 1000.00,2996.27" speed="9.26" />
    </edge>
    <edge function="internal" id=":A2_14">
        <lane id=":A2_14_0" index="0" length="2.34" shape="1001.60,2989.60 1000.80,2990.80 1000.00,2991.20" speed="3.65" />
    </edge>
    <edge function="internal" id=":A2_24">
        <lane id=":A2_24_0" index="0" length="12.40" shape="1000.00,2996.27 998.60,2998.60 994.85,3000.85 989.60,3001.60" speed="9.26" />
    </edge>
    <edge function="internal" id=":A2_25">
        <lane id=":A2_25_0" index="0" length="2.34" shape="1000.00,2991.20 999.20,2990.80 998.40,2989.60" speed="3.65" />
    </edge>
    <edge function="internal" id=":A2_15">
        <lane id=":A2_15_0" index="0" length="9.03" shape="989.60,2995.20 992.05,2994.85 993.80,2993.80 994.85,2992.05 995.20,2989.60" speed="6.51" />
    </edge>
    <edge function="internal" id=":A2_16">
        <lane id=":A2_16_0" index="0" length="20.80" shape="989.60,2995.20 1010.40,2995.20" speed="13.89" />
        <lane id=":A2_16_1" index="1" length="20.80" shape="989.60,2998.40 1010.40,2998.40" speed="13.89" />
    </edge>
    <edge function="internal" id=":A2_18">
        <lane id=":A2_18_0" index="0" length="6.96" shape="989.60,2998.40 994.85,2999.15 996.27,3000.00" speed="9.26" />
    </edge>
    <edge function="internal" id=":A2_19">
        <lane id=":A2_19_0" index="0" length="2.34" shape="989.60,2998.40 990.80,2999.20 991.20,3000.00" speed="3.65" />
    </edge>
    <edge function="internal" id=":A2_26">
        <lane id=":A2_26_0" index="0" length="12.40" shape="996.27,3000.00 998.60,3001.40 1000.85,3005.15 1001.60,3010.40" speed="9.26" />
    </edge>
    <edge function="internal" id=":A2_27">
        <lane id=":A2_27_0" index="0" length="2.34" shape="991.20,3000.00 990.80,3000.80 989.60,3001.60" speed="3.65" />
    </edge>
    <edge function="internal" id=":B0_0">
        <lane id=":B0_0_0" index="0" length="9.03" shape="1995.20,1010.40 1994.85,1007.95 1993.80,1006.20 1992.05,1005.15 1989.60,1004.80" speed="6.51" />
    </edge>
    <edge function="internal" id=":B0_1">
        <lane id=":B0_1_0" index="0" length="20.80" shape="1995.20,1010.40 1995.20,989.60" speed="13.89" />
        <lane id=":B0_1_1" index="1" length="20.80" shape="1998.40,1010.40 1998.40,989.60" speed="13.89" />
    </edge>
    <edge function="internal" id=":B0_3">
        <lane id=":B0_3_0" index="0" length="6.96" shape="1998.40,1010.40 1999.15,1005.15 2000.00,1003.73" speed="9.26" />
    </edge>
    <edge function="internal" id=":B0_4">
        <lane id=":B0_4_0" index="0" length="2.34" shape="1998.40,1010.40 1999.20,1009.20 2000.00,1008.80" speed="3.65" />
    </edge>
    <edge function="internal" id=":B0_20">
        <lane id=":B0_20_0" index="0" length="12.40" shape="2000.00,1003.73 2001.40,1001.40 2005.15,999.15 2010.40,998.40" speed="9.26" />
    </edge>
    <edge function="internal" id=":B0_21">
        <lane id=":B0_21_0" index="0" length="2.34" shape="2000.00,1008.80 2000.80,1009.20 2001.60,1010.40" speed="3.65" />
    </edge>
    <edge function="internal" id=":B0_5">
        <lane id=":B0_5_0" index="0" length="9.03" shape="2010.40,1004.80 2007.95,1005.15 2006.20,1006.20 2005.15,1007.95 2004.80,1010.40" speed="6.51" />
    </edge>
    <edge function="internal" id=":B0_6">
        <lane id=":B0_6_0" index="0" length="20.80" shape="2010.40,1004.80 1989.60,1004.80" speed="13.89" />
        <lane id=":B0_6_1" index="1" length="20.80" shape="2010.40,1001.60 1989.60,1001.60" speed="13.89" />
    </edge>
    <edge function="internal" id=":B0_8">
        <lane id=":B0_8_0" index="0" length="6.96" shape="2010.40,1001.60 2005.15,1000.85 2003.73,1000.00" speed="9.26" />
    </edge>
    <edge function="internal" id=":B0_9">
        <lane id=":B0_9_0" index="0" length="2.34" shape="2010.40,1001.60 2009.20,1000.80 2008.80,1000.00" speed="3.65" />
    </edge>
    <edge function="internal" id=":B0_22">
        <lane id=":B0_22_0" index="0" length="12.40" shape="2003.73,1000.00 2001.40,998.60 1999.15,994.85 1998.40,989.60" speed="9.26" />
    </edge>
    <edge function="internal" id=":B0_23">
        <lane id=":B0_23_0" index="0" length="2.34" shape="2008.80,1000.00 2009.20,999.20 2010.40,998.40" speed="3.65" />
    </edge>
    <edge function="internal" id=":B0_10">
        <lane id=":B0_10_0" index="0" length="9.03" shape="2004.80,989.60 2005.15,992.05 2006.20,993.80 2007.95,994.85 2010.40,995.20" speed="6.51" />
    </edge>
    <edge function="internal" id=":B0_11">
        <lane id=":B0_11_0" index="0" length="20.80" shape="2004.80,989.60 2004.80,1010.40" speed="13.89" />
        <lane id=":B0_11_1" index="1" length="20.80" shape="2001.60,989.60 2001.60,1010.40" speed="13.89" />
    </edge>
    <edge function="internal" id=":B0_13">
        <lane id=":B0_13_0" index="0" length="6.96" shape="2001.60,989.60 2000.85,994.85 2000.00,996.27" speed="9.26" />
    </edge>
    <edge function="internal" id=":B0_14">
        <lane id=":B0_14_0" index="0" length="2.34" shape="2001.60,989.60 2000.80,990.80 2000.00,991.20" speed="3.65" />
    </edge>
    <edge function="internal" id=":B0_24">
        <lane id=":B0_24_0" index="0" length="12.40" shape="2000.00,996.27 1998.60,998.60 1994.85,1000.85 1989.60,1001.60" speed="9.26" />
    </edge>
    <edge function="internal" id=":B0_25">
        <lane id=":B0_25_0" index="0" length="2.34" shape="2000.00,991.20 1999.20,990.80 1998.40,989.60" speed="3.65" />
    </edge>
    <edge function="internal" id=":B0_15">
        <lane id=":B0_15_0" index="0" length="9.03" shape="1989.60,995.20 1992.05,994.85 1993.80,993.80 1994.85,992.05 1995.20,989.60" speed="6.51" />
    </edge>
    <edge function="internal" id=":B0_16">
        <lane id=":B0_16_0" index="0" length="20.80" shape="1989.60,995.20 2010.40,995.20" speed="13.89" />
        <lane id=":B0_16_1" index="1" length="20.80" shape="1989.60,998.40 2010.40,998.40" speed="13.89" />
    </edge>
    <edge function="internal" id=":B0_18">
        <lane id=":B0_18_0" index="0" length="6.96" shape="1989.60,998.40 1994.85,999.15 1996.27,1000.00" speed="9.26" />
    </edge>
    <edge function="internal" id=":B0_19">
        <lane id=":B0_19_0" index="0" length="2.34" shape="1989.60,998.40 1990.80,999.20 1991.20,1000.00" speed="3.65" />
    </edge>
    <edge function="internal" id=":B0_26">
        <lane id=":B0_26_0" index="0" length="12.40" shape="1996.27,1000.00 1998.60,1001.40 2000.85,1005.15 2001.60,1010.40" speed="9.26" />
    </edge>
    <edge function="internal" id=":B0_27">
        <lane id=":B0_27_0" index="0" length="2.34" shape="1991.20,1000.00 1990.80,1000.80 1989.60,1001.60" speed="3.65" />
    </edge>
    <edge function="internal" id=":B1_0">
        <lane id=":B1_0_0" index="0" length="9.03" shape="1995.20,2010.40 1994.85,2007.95 1993.80,2006.20 1992.05,2005.15 1989.60,2004.80" speed="6.51" />
    </edge>
    <edge function="internal" id=":B1_1">
        <lane id=":B1_1_0" index="0" length="20.80" shape="1995.20,2010.40 1995.20,1989.60" speed="13.89" />
        <lane id=":B1_1_1" index="1" length="20.80" shape="1998.40,2010.40 1998.40,1989.60" speed="13.89" />
    </edge>
    <edge function="internal" id=":B1_3">
        <lane id=":B1_3_0" index="0" length="6.96" shape="1998.40,2010.40 1999.15,2005.15 2000.00,2003.73" speed="9.26" />
    </edge>
    <edge function="internal" id=":B1_4">
        <lane id=":B1_4_0" index="0" length="2.34" shape="1998.40,2010.40 1999.20,2009.20 2000.00,2008.80" speed="3.65" />
    </edge>
    <edge function="internal" id=":B1_20">
        <lane id=":B1_20_0" index="0" length="12.40" shape="2000.00,2003.73 2001.40,2001.40 2005.15,1999.15 2010.40,1998.40" speed="9.26" />
    </edge>
    <edge function="internal" id=":B1_21">
        <lane id=":B1_21_0" index="0" length="2.34" shape="2000.00,2008.80 2000.80,2009.20 2001.60,2010.40" speed="3.65" />
    </edge>
    <edge function="internal" id=":B1_5">
        <lane id=":B1_5_0" index="0" length="9.03" shape="2010.40,2004.80 2007.95,2005.15 2006.20,2006.20 2005.15,2007.95 2004.80,2010.40" speed="6.51" />
    </edge>
    <edge function="internal" id=":B1_6">
        <lane id=":B1_6_0" index="0" length="20.80" shape="2010.40,2004.80 1989.60,2004.80" speed="13.89" />
        <lane id=":B1_6_1" index="1" length="20.80" shape="2010.40,2001.60 1989.60,2001.60" speed="13.89" />
    </edge>
    <edge function="internal" id=":B1_8">
        <lane id=":B1_8_0" index="0" length="6.96" shape="2010.40,2001.60 2005.15,2000.85 2003.73,2000.00" speed="9.26" />
    </edge>
    <edge function="internal" id=":B1_9">
        <lane id=":B1_9_0" index="0" length="2.34" shape="2010.40,2001.60 2009.20,2000.80 2008.80,2000.00" speed="3.65" />
    </edge>
    <edge function="internal" id=":B1_22">
        <lane id=":B1_22_0" index="0" length="12.40" shape="2003.73,2000.00 2001.40,1998.60 1999.15,1994.85 1998.40,1989.60" speed="9.26" />
    </edge>
    <edge function="internal" id=":B1_23">
        <lane id=":B1_23_0" index="0" length="2.34" shape="2008.80,2000.00 2009.20,1999.20 2010.40,1998.40" speed="3.65" />
    </edge>
    <edge function="internal" id=":B1_10">
        <lane id=":B1_10_0" index="0" length="9.03" shape="2004.80,1989.60 2005.15,1992.05 2006.20,1993.80 2007.95,1994.85 2010.40,1995.20" speed="6.51" />
    </edge>
    <edge function="internal" id=":B1_11">
        <lane id=":B1_11_0" index="0" length="20.80" shape="2004.80,1989.60 2004.80,2010.40" speed="13.89" />
        <lane id=":B1_11_1" index="1" length="20.80" shape="2001.60,1989.60 2001.60,2010.40" speed="13.89" />
    </edge>
    <edge function="internal" id=":B1_13">
        <lane id=":B1_13_0" index="0" length="6.96" shape="2001.60,1989.60 2000.85,1994.85 2000.00,1996.27" speed="9.26" />
    </edge>
    <edge function="internal" id=":B1_14">
        <lane id=":B1_14_0" index="0" length="2.34" shape="2001.60,1989.60 2000.80,1990.80 2000.00,1991.20" speed="3.65" />
    </edge>
    <edge function="internal" id=":B1_24">
        <lane id=":B1_24_0" index="0" length="12.40" shape="2000.00,1996.27 1998.60,1998.60 1994.85,2000.85 1989.60,2001.60" speed="9.26" />
    </edge>
    <edge function="internal" id=":B1_25">
        <lane id=":B1_25_0" index="0" length="2.34" shape="2000.00,1991.20 1999.20,1990.80 1998.40,1989.60" speed="3.65" />
    </edge>
    <edge function="internal" id=":B1_15">
        <lane id=":B1_15_0" index="0" length="9.03" shape="1989.60,1995.20 1992.05,1994.85 1993.80,1993.80 1994.85,1992.05 1995.20,1989.60" speed="6.51" />
    </edge>
    <edge function="internal" id=":B1_16">
        <lane id=":B1_16_0" index="0" length="20.80" shape="1989.60,1995.20 2010.40,1995.20" speed="13.89" />
        <lane id=":B1_16_1" index="1" length="20.80" shape="1989.60,1998.40 2010.40,1998.40" speed="13.89" />
    </edge>
    <edge function="internal" id=":B1_18">
        <lane id=":B1_18_0" index="0" length="6.96" shape="1989.60,1998.40 1994.85,1999.15 1996.27,2000.00" speed="9.26" />
    </edge>
    <edge function="internal" id=":B1_19">
        <lane id=":B1_19_0" index="0" length="2.34" shape="1989.60,1998.40 1990.80,1999.20 1991.20,2000.00" speed="3.65" />
    </edge>
    <edge function="internal" id=":B1_26">
        <lane id=":B1_26_0" index="0" length="12.40" shape="1996.27,2000.00 1998.60,2001.40 2000.85,2005.15 2001.60,2010.40" speed="9.26" />
    </edge>
    <edge function="internal" id=":B1_27">
        <lane id=":B1_27_0" index="0" length="2.34" shape="1991.20,2000.00 1990.80,2000.80 1989.60,2001.60" speed="3.65" />
    </edge>
    <edge function="internal" id=":B2_0">
        <lane id=":B2_0_0" index="0" length="9.03" shape="1995.20,3010.40 1994.85,3007.95 1993.80,3006.20 1992.05,3005.15 1989.60,3004.80" speed="6.51" />
    </edge>
    <edge function="internal" id=":B2_1">
        <lane id=":B2_1_0" index="0" length="20.80" shape="1995.20,3010.40 1995.20,2989.60" speed="13.89" />
        <lane id=":B2_1_1" index="1" length="20.80" shape="1998.40,3010.40 1998.40,2989.60" speed="13.89" />
    </edge>
    <edge function="internal" id=":B2_3">
        <lane id=":B2_3_0" index="0" length="6.96" shape="1998.40,3010.40 1999.15,3005.15 2000.00,3003.73" speed="9.26" />
    </edge>
    <edge function="internal" id=":B2_4">
        <lane id=":B2_4_0" index="0" length="2.34" shape="1998.40,3010.40 1999.20,3009.20 2000.00,3008.80" speed="3.65" />
    </edge>
    <edge function="internal" id=":B2_20">
        <lane id=":B2_20_0" index="0" length="12.40" shape="2000.00,3003.73 2001.40,3001.40 2005.15,2999.15 2010.40,2998.40" speed="9.26" />
    </edge>
    <edge function="internal" id=":B2_21">
        <lane id=":B2_21_0" index="0" length="2.34" shape="2000.00,3008.80 2000.80,3009.20 2001.60,3010.40" speed="3.65" />
    </edge>
    <edge function="internal" id=":B2_5">
        <lane id=":B2_5_0" index="0" length="9.03" shape="2010.40,3004.80 2007.95,3005.15 2006.20,3006.20 2005.15,3007.95 2004.80,3010.40" speed="6.51" />
    </edge>
    <edge function="internal" id=":B2_6">
        <lane id=":B2_6_0" index="0" length="20.80" shape="2010.40,3004.80 1989.60,3004.80" speed="13.89" />
        <lane id=":B2_6_1" index="1" length="20.80" shape="2010.40,3001.60 1989.60,3001.60" speed="13.89" />
    </edge>
    <edge function="internal" id=":B2_8">
        <lane id=":B2_8_0" index="0" length="6.96" shape="2010.40,3001.60 2005.15,3000.85 2003.73,3000.00" speed="9.26" />
    </edge>
    <edge function="internal" id=":B2_9">
        <lane id=":B2_9_0" index="0" length="2.34" shape="2010.40,3001.60 2009.20,3000.80 2008.80,3000.00" speed="3.65" />
    </edge>
    <edge function="internal" id=":B2_22">
        <lane id=":B2_22_0" index="0" length="12.40" shape="2003.73,3000.00 2001.40,2998.60 1999.15,2994.85 1998.40,2989.60" speed="9.26" />
    </edge>
    <edge function="internal" id=":B2_23">
        <lane id=":B2_23_0" index="0" length="2.34" shape="2008.80,3000.00 2009.20,2999.20 2010.40,2998.40" speed="3.65" />
    </edge>
    <edge function="internal" id=":B2_10">
        <lane id=":B2_10_0" index="0" length="9.03" shape="2004.80,2989.60 2005.15,2992.05 2006.20,2993.80 2007.95,2994.85 2010.40,2995.20" speed="6.51" />
    </edge>
    <edge function="internal" id=":B2_11">
        <lane id=":B2_11_0" index="0" length="20.80" shape="2004.80,2989.60 2004.80,3010.40" speed="13.89" />
        <lane id=":B2_11_1" index="1" length="20.80" shape="2001.60,2989.60 2001.60,3010.40" speed="13.89" />
    </edge>
    <edge function="internal" id=":B2_13">
        <lane id=":B2_13_0" index="0" length="6.96" shape="2001.60,2989.60 2000.85,2994.85 2000.00,2996.27" speed="9.26" />
    </edge>
    <edge function="internal" id=":B2_14">
        <lane id=":B2_14_0" index="0" length="2.34" shape="2001.60,2989.60 2000.80,2990.80 2000.00,2991.20" speed="3.65" />
    </edge>
    <edge function="internal" id=":B2_24">
        <lane id=":B2_24_0" index="0" length="12.40" shape="2000.00,2996.27 1998.60,2998.60 1994.85,3000.85 1989.60,3001.60" speed="9.26" />
    </edge>
    <edge function="internal" id=":B2_25">
        <lane id=":B2_25_0" index="0" length="2.34" shape="2000.00,2991.20 1999.20,2990.80 1998.40,2989.60" speed="3.65" />
    </edge>
    <edge function="internal" id=":B2_15">
        <lane id=":B2_15_0" index="0" length="9.03" shape="1989.60,2995.20 1992.05,2994.85 1993.80,2993.80 1994.85,2992.05 1995.20,2989.60" speed="6.51" />
    </edge>
    <edge function="internal" id=":B2_16">
        <lane id=":B2_16_0" index="0" length="20.80" shape="1989.60,2995.20 2010.40,2995.20" speed="13.89" />
        <lane id=":B2_16_1" index="1" length="20.80" shape="1989.60,2998.40 2010.40,2998.40" speed="13.89" />
    </edge>
    <edge function="internal" id=":B2_18">
        <lane id=":B2_18_0" index="0" length="6.96" shape="1989.60,2998.40 1994.85,2999.15 1996.27,3000.00" speed="9.26" />
    </edge>
    <edge function="internal" id=":B2_19">
        <lane id=":B2_19_0" index="0" length="2.34" shape="1989.60,2998.40 1990.80,2999.20 1991.20,3000.00" speed="3.65" />
    </edge>
    <edge function="internal" id=":B2_26">
        <lane id=":B2_26_0" index="0" length="12.40" shape="1996.27,3000.00 1998.60,3001.40 2000.85,3005.15 2001.60,3010.40" speed="9.26" />
    </edge>
    <edge function="internal" id=":B2_27">
        <lane id=":B2_27_0" index="0" length="2.34" shape="1991.20,3000.00 1990.80,3000.80 1989.60,3001.60" speed="3.65" />
    </edge>
    <edge function="internal" id=":C0_0">
        <lane id=":C0_0_0" index="0" length="9.03" shape="2995.20,1010.40 2994.85,1007.95 2993.80,1006.20 2992.05,1005.15 2989.60,1004.80" speed="6.51" />
    </edge>
    <edge function="internal" id=":C0_1">
        <lane id=":C0_1_0" index="0" length="20.80" shape="2995.20,1010.40 2995.20,989.60" speed="13.89" />
        <lane id=":C0_1_1" index="1" length="20.80" shape="2998.40,1010.40 2998.40,989.60" speed="13.89" />
    </edge>
    <edge function="internal" id=":C0_3">
        <lane id=":C0_3_0" index="0" length="6.96" shape="2998.40,1010.40 2999.15,1005.15 3000.00,1003.73" speed="9.26" />
    </edge>