<?xml version="1.0" encoding="UTF-8"?>

<!-- generated on 04/21/20 13:16:48 by Eclipse SUMO netgenerate Version 1.3.1
<configuration xmlns:xsi="http://www.w3.org/2001/XMLSchema-instance" xsi:noNamespaceSchemaLocation="http://sumo.dlr.de/xsd/netgenerateConfiguration.xsd">

    <grid_network>
        <grid value="true"/>
        <grid.x-number value="3"/>
        <grid.y-number value="3"/>
        <grid.x-length value="1000"/>
        <grid.y-length value="1000"/>
        <grid.attach-length value="1000"/>
    </grid_network>

    <output>
        <output-file value="E:\Traffic_Control_Benchmark\sumocfg\3X3grid\3X3grid.net.xml"/>
        <plain-output-prefix value="E:\Traffic_Control_Benchmark\sumocfg\3X3grid\3X3grid"/>
    </output>

    <building_defaults>
        <default.lanenumber value="2"/>
    </building_defaults>

    <tls_building>
        <tls.guess value="true"/>
        <tls.default-type value="static"/>
    </tls_building>

    <junctions>
        <check-lane-foes.all value="true"/>
    </junctions>

</configuration>
-->

<edges version="1.3" xmlns:xsi="http://www.w3.org/2001/XMLSchema-instance" xsi:noNamespaceSchemaLocation="http://sumo.dlr.de/xsd/edges_file.xsd">
    <edge id="A0A1" from="A0" to="A1" priority="-1" numLanes="2" speed="13.89"/>
    <edge id="A0B0" from="A0" to="B0" priority="-1" numLanes="2" speed="13.89"/>
    <edge id="A0bottom0" from="A0" to="bottom0" priority="-1" numLanes="2" speed="13.89"/>
    <edge id="A0left0" from="A0" to="left0" priority="-1" numLanes="2" speed="13.89"/>
    <edge id="A1A0" from="A1" to="A0" priority="-1" numLanes="2" speed="13.89"/>
    <edge id="A1A2" from="A1" to="A2" priority="-1" numLanes="2" speed="13.89"/>
    <edge id="A1B1" from="A1" to="B1" priority="-1" numLanes="2" speed="13.89"/>
    <edge id="A1left1" from="A1" to="left1" priority="-1" numLanes="2" speed="13.89"/>
    <edge id="A2A1" from="A2" to="A1" priority="-1" numLanes="2" speed="13.89"/>
    <edge id="A2B2" from="A2" to="B2" priority="-1" numLanes="2" speed="13.89"/>
    <edge id="A2left2" from="A2" to="left2" priority="-1" numLanes="2" speed="13.89"/>
    <edge id="A2top0" from="A2" to="top0" priority="-1" numLanes="2" speed="13.89"/>
    <edge id="B0A0" from="B0" to="A0" priority="-1" numLanes="2" speed="13.89"/>
    <edge id="B0B1" from="B0" to="B1" priority="-1" numLanes="2" speed="13.89"/>
    <edge id="B0C0" from="B0" to="C0" priority="-1" numLanes="2" speed="13.89"/>
    <edge id="B0bottom1" from="B0" to="bottom1" priority="-1" numLanes="2" speed="13.89"/>
    <edge id="B1A1" from="B1" to="A1" priority="-1" numLanes="2" speed="13.89"/>
    <edge id="B1B0" from="B1" to="B0" priority="-1" numLanes="2" speed="13.89"/>
    <edge id="B1B2" from="B1" to="B2" priority="-1" numLanes="2" speed="13.89"/>
    <edge id="B1C1" from="B1" to="C1" priority="-1" numLanes="2" speed="13.89"/>
    <edge id="B2A2" from="B2" to="A2" priority="-1" numLanes="2" speed="13.89"/>
    <edge id="B2B1" from="B2" to="B1" priority="-1" numLanes="2" speed="13.89"/>
    <edge id="B2C2" from="B2" to="C2" priority="-1" numLanes="2" speed="13.89"/>
    <edge id="B2top1" from="B2" to="top1" priority="-1" numLanes="2" speed="13.89"/>
    <edge id="C0B0" from="C0" to="B0" priority="-1" numLanes="2" speed="13.89"/>
    <edge id="C0C1" from="C0" to="C1" priority="-1" numLanes="2" speed="13.89"/>
    <edge id="C0bottom2" from="C0" to="bottom2" priority="-1" numLanes="2" speed="13.89"/>
    <edge id="C0right0" from="C0" to="right0" priority="-1" numLanes="2" speed="13.89"/>
    <edge id="C1B1" from="C1" to="B1" priority="-1" numLanes="2" speed="13.89"/>
    <edge id="C1C0" from="C1" to="C0" priority="-1" numLanes="2" speed="13.89"/>
    <edge id="C1C2" from="C1" to="C2" priority="-1" numLanes="2" speed="13.89"/>
    <edge id="C1right1" from="C1" to="right1" priority="-1" numLanes="2" speed="13.89"/>
    <edge id="C2B2" from="C2" to="B2" priority="-1" numLanes="2" speed="13.89"/>
    <edge id="C2C1" from="C2" to="C1" priority="-1" numLanes="2" speed="13.89"/>
    <edge id="C2right2" from="C2" to="right2" priority="-1" numLanes="2" speed="13.89"/>
    <edge id="C2top2" from="C2" to="top2" priority="-1" numLanes="2" speed="13.89"/>
    <edge id="bottom0A0" from="bottom0" to="A0" priority="-1" numLanes="2" speed="13.89"/>
    <edge id="bottom1B0" from="bottom1" to="B0" priority="-1" numLanes="2" speed="13.89"/>
    <edge id="bottom2C0" from="bottom2" to="C0" priority="-1" numLanes="2" speed="13.89"/>
    <edge id="left0A0" from="left0" to="A0" priority="-1" numLanes="2" speed="13.89"/>
    <edge id="left1A1" from="left1" to="A1" priority="-1" numLanes="2" speed="13.89"/>
    <edge id="left2A2" from="left2" to="A2" priority="-1" numLanes="2" speed="13.89"/>
    <edge id="right0C0" from="right0" to="C0" priority="-1" numLanes="2" speed="13.89"/>
    <edge id="right1C1" from="right1" to="C1" priority="-1" numLanes="2" speed="13.89"/>
    <edge id="right2C2" from="right2" to="C2" priority="-1" numLanes="2" speed="13.89"/>
    <edge id="top0A2" from="top0" to="A2" priority="-1" numLanes="2" speed="13.89"/>
    <edge id="top1B2" from="top1" to="B2" priority="-1" numLanes="2" speed="13.89"/>
    <edge id="top2C2" from="top2" to="C2" priority="-1" numLanes="2" speed="13.89"/>
</edges>
