<?xml version="1.0" encoding="UTF-8"?>

<!-- generated on 04/22/20 13:09:57 by Eclipse SUMO netgenerate Version 1.3.1
<configuration xmlns:xsi="http://www.w3.org/2001/XMLSchema-instance" xsi:noNamespaceSchemaLocation="http://sumo.dlr.de/xsd/netgenerateConfiguration.xsd">

    <grid_network>
        <grid value="true"/>
        <grid.x-number value="5"/>
        <grid.y-number value="5"/>
        <grid.x-length value="1000"/>
        <grid.y-length value="1000"/>
        <grid.attach-length value="1000"/>
    </grid_network>

    <output>
        <output-file value="E:\Traffic_Control_Benchmark\sumocfg\5X5grid\5X5grid.net.xml"/>
        <plain-output-prefix value="E:\Traffic_Control_Benchmark\sumocfg\5X5grid\5X5grid"/>
    </output>

    <building_defaults>
        <default.lanenumber value="2"/>
    </building_defaults>

    <tls_building>
        <tls.guess value="true"/>
        <tls.default-type value="static"/>
    </tls_building>

    <junctions>
        <check-lane-foes.all value="true"/>
    </junctions>

</configuration>
-->

<connections version="1.3" xmlns:xsi="http://www.w3.org/2001/XMLSchema-instance" xsi:noNamespaceSchemaLocation="http://sumo.dlr.de/xsd/connections_file.xsd">
    <connection from="A0A1" to="A1B1" fromLane="0" toLane="0"/>
    <connection from="A0A1" to="A1A2" fromLane="0" toLane="0"/>
    <connection from="A0A1" to="A1A2" fromLane="1" toLane="1"/>
    <connection from="A0A1" to="A1left1" fromLane="1" toLane="1"/>
    <connection from="A0A1" to="A1A0" fromLane="1" toLane="1"/>

    <connection from="A0B0" to="B0bottom1" fromLane="0" toLane="0"/>
    <connection from="A0B0" to="B0C0" fromLane="0" toLane="0"/>
    <connection from="A0B0" to="B0C0" fromLane="1" toLane="1"/>
    <connection from="A0B0" to="B0B1" fromLane="1" toLane="1"/>
    <connection from="A0B0" to="B0A0" fromLane="1" toLane="1"/>

    <connection from="A0bottom0" to="bottom0A0" fromLane="1" toLane="1"/>

    <connection from="A0left0" to="left0A0" fromLane="1" toLane="1"/>

    <connection from="A1A0" to="A0left0" fromLane="0" toLane="0"/>
    <connection from="A1A0" to="A0bottom0" fromLane="0" toLane="0"/>
    <connection from="A1A0" to="A0bottom0" fromLane="1" toLane="1"/>
    <connection from="A1A0" to="A0B0" fromLane="1" toLane="1"/>
    <connection from="A1A0" to="A0A1" fromLane="1" toLane="1"/>

    <connection from="A1A2" to="A2B2" fromLane="0" toLane="0"/>
    <connection from="A1A2" to="A2A3" fromLane="0" toLane="0"/>
    <connection from="A1A2" to="A2A3" fromLane="1" toLane="1"/>
    <connection from="A1A2" to="A2left2" fromLane="1" toLane="1"/>
    <connection from="A1A2" to="A2A1" fromLane="1" toLane="1"/>

    <connection from="A1B1" to="B1B0" fromLane="0" toLane="0"/>
    <connection from="A1B1" to="B1C1" fromLane="0" toLane="0"/>
    <connection from="A1B1" to="B1C1" fromLane="1" toLane="1"/>
    <connection from="A1B1" to="B1B2" fromLane="1" toLane="1"/>
    <connection from="A1B1" to="B1A1" fromLane="1" toLane="1"/>

    <connection from="A1left1" to="left1A1" fromLane="1" toLane="1"/>

    <connection from="A2A1" to="A1left1" fromLane="0" toLane="0"/>
    <connection from="A2A1" to="A1A0" fromLane="0" toLane="0"/>
    <connection from="A2A1" to="A1A0" fromLane="1" toLane="1"/>
    <connection from="A2A1" to="A1B1" fromLane="1" toLane="1"/>
    <connection from="A2A1" to="A1A2" fromLane="1" toLane="1"/>

    <connection from="A2A3" to="A3B3" fromLane="0" toLane="0"/>
    <connection from="A2A3" to="A3A4" fromLane="0" toLane="0"/>
    <connection from="A2A3" to="A3A4" fromLane="1" toLane="1"/>
    <connection from="A2A3" to="A3left3" fromLane="1" toLane="1"/>
    <connection from="A2A3" to="A3A2" fromLane="1" toLane="1"/>

    <connection from="A2B2" to="B2B1" fromLane="0" toLane="0"/>
    <connection from="A2B2" to="B2C2" fromLane="0" toLane="0"/>
    <connection from="A2B2" to="B2C2" fromLane="1" toLane="1"/>
    <connection from="A2B2" to="B2B3" fromLane="1" toLane="1"/>
    <connection from="A2B2" to="B2A2" fromLane="1" toLane="1"/>

    <connection from="A2left2" to="left2A2" fromLane="1" toLane="1"/>

    <connection from="A3A2" to="A2left2" fromLane="0" toLane="0"/>
    <connection from="A3A2" to="A2A1" fromLane="0" toLane="0"/>
    <connection from="A3A2" to="A2A1" fromLane="1" toLane="1"/>
    <connection from="A3A2" to="A2B2" fromLane="1" toLane="1"/>
    <connection from="A3A2" to="A2A3" fromLane="1" toLane="1"/>

    <connection from="A3A4" to="A4B4" fromLane="0" toLane="0"/>
    <connection from="A3A4" to="A4top0" fromLane="0" toLane="0"/>
    <connection from="A3A4" to="A4top0" fromLane="1" toLane="1"/>
    <connection from="A3A4" to="A4left4" fromLane="1" toLane="1"/>
    <connection from="A3A4" to="A4A3" fromLane="1" toLane="1"/>

    <connection from="A3B3" to="B3B2" fromLane="0" toLane="0"/>
    <connection from="A3B3" to="B3C3" fromLane="0" toLane="0"/>
    <connection from="A3B3" to="B3C3" fromLane="1" toLane="1"/>
    <connection from="A3B3" to="B3B4" fromLane="1" toLane="1"/>
    <connection from="A3B3" to="B3A3" fromLane="1" toLane="1"/>

    <connection from="A3left3" to="left3A3" fromLane="1" toLane="1"/>

    <connection from="A4A3" to="A3left3" fromLane="0" toLane="0"/>
    <connection from="A4A3" to="A3A2" fromLane="0" toLane="0"/>
    <connection from="A4A3" to="A3A2" fromLane="1" toLane="1"/>
    <connection from="A4A3" to="A3B3" fromLane="1" toLane="1"/>
    <connection from="A4A3" to="A3A4" fromLane="1" toLane="1"/>

    <connection from="A4B4" to="B4B3" fromLane="0" toLane="0"/>
    <connection from="A4B4" to="B4C4" fromLane="0" toLane="0"/>
    <connection from="A4B4" to="B4C4" fromLane="1" toLane="1"/>
    <connection from="A4B4" to="B4top1" fromLane="1" toLane="1"/>
    <connection from="A4B4" to="B4A4" fromLane="1" toLane="1"/>

    <connection from="A4left4" to="left4A4" fromLane="1" toLane="1"/>

    <connection from="A4top0" to="top0A4" fromLane="1" toLane="1"/>

    <connection from="B0A0" to="A0A1" fromLane="0" toLane="0"/>
    <connection from="B0A0" to="A0left0" fromLane="0" toLane="0"/>
    <connection from="B0A0" to="A0left0" fromLane="1" toLane="1"/>
    <connection from="B0A0" to="A0bottom0" fromLane="1" toLane="1"/>
    <connection from="B0A0" to="A0B0" fromLane="1" toLane="1"/>

    <connection from="B0B1" to="B1C1" fromLane="0" toLane="0"/>
    <connection from="B0B1" to="B1B2" fromLane="0" toLane="0"/>
    <connection from="B0B1" to="B1B2" fromLane="1" toLane="1"/>
    <connection from="B0B1" to="B1A1" fromLane="1" toLane="1"/>
    <connection from="B0B1" to="B1B0" fromLane="1" toLane="1"/>

    <connection from="B0C0" to="C0bottom2" fromLane="0" toLane="0"/>
    <connection from="B0C0" to="C0D0" fromLane="0" toLane="0"/>
    <connection from="B0C0" to="C0D0" fromLane="1" toLane="1"/>
    <connection from="B0C0" to="C0C1" fromLane="1" toLane="1"/>
    <connection from="B0C0" to="C0B0" fromLane="1" toLane="1"/>

    <connection from="B0bottom1" to="bottom1B0" fromLane="1" toLane="1"/>

    <connection from="B1A1" to="A1A2" fromLane="0" toLane="0"/>
    <connection from="B1A1" to="A1left1" fromLane="0" toLane="0"/>
    <connection from="B1A1" to="A1left1" fromLane="1" toLane="1"/>
    <connection from="B1A1" to="A1A0" fromLane="1" toLane="1"/>
    <connection from="B1A1" to="A1B1" fromLane="1" toLane="1"/>

    <connection from="B1B0" to="B0A0" fromLane="0" toLane="0"/>
    <connection from="B1B0" to="B0bottom1" fromLane="0" toLane="0"/>
    <connection from="B1B0" to="B0bottom1" fromLane="1" toLane="1"/>
    <connection from="B1B0" to="B0C0" fromLane="1" toLane="1"/>
    <connection from="B1B0" to="B0B1" fromLane="1" toLane="1"/>

    <connection from="B1B2" to="B2C2" fromLane="0" toLane="0"/>
    <connection from="B1B2" to="B2B3" fromLane="0" toLane="0"/>
    <connection from="B1B2" to="B2B3" fromLane="1" toLane="1"/>
    <connection from="B1B2" to="B2A2" fromLane="1" toLane="1"/>
    <connection from="B1B2" to="B2B1" fromLane="1" toLane="1"/>

    <connection from="B1C1" to="C1C0" fromLane="0" toLane="0"/>
    <connection from="B1C1" to="C1D1" fromLane="0" toLane="0"/>
    <connection from="B1C1" to="C1D1" fromLane="1" toLane="1"/>
    <connection from="B1C1" to="C1C2" fromLane="1" toLane="1"/>
    <connection from="B1C1" to="C1B1" fromLane="1" toLane="1"/>

    <connection from="B2A2" to="A2A3" fromLane="0" toLane="0"/>
    <connection from="B2A2" to="A2left2" fromLane="0" toLane="0"/>
    <connection from="B2A2" to="A2left2" fromLane="1" toLane="1"/>
    <connection from="B2A2" to="A2A1" fromLane="1" toLane="1"/>
    <connection from="B2A2" to="A2B2" fromLane="1" toLane="1"/>

    <connection from="B2B1" to="B1A1" fromLane="0" toLane="0"/>
    <connection from="B2B1" to="B1B0" fromLane="0" toLane="0"/>
    <connection from="B2B1" to="B1B0" fromLane="1" toLane="1"/>
    <connection from="B2B1" to="B1C1" fromLane="1" toLane="1"/>
    <connection from="B2B1" to="B1B2" fromLane="1" toLane="1"/>

    <connection from="B2B3" to="B3C3" fromLane="0" toLane="0"/>
    <connection from="B2B3" to="B3B4" fromLane="0" toLane="0"/>
    <connection from="B2B3" to="B3B4" fromLane="1" toLane="1"/>
    <connection from="B2B3" to="B3A3" fromLane="1" toLane="1"/>
    <connection from="B2B3" to="B3B2" fromLane="1" toLane="1"/>

    <connection from="B2C2" to="C2C1" fromLane="0" toLane="0"/>
    <connection from="B2C2" to="C2D2" fromLane="0" toLane="0"/>
    <connection from="B2C2" to="C2D2" fromLane="1" toLane="1"/>
    <connection from="B2C2" to="C2C3" fromLane="1" toLane="1"/>
    <connection from="B2C2" to="C2B2" fromLane="1" toLane="1"/>

    <connection from="B3A3" to="A3A4" fromLane="0" toLane="0"/>
    <connection from="B3A3" to="A3left3" fromLane="0" toLane="0"/>
    <connection from="B3A3" to="A3left3" fromLane="1" toLane="1"/>
    <connection from="B3A3" to="A3A2" fromLane="1" toLane="1"/>
    <connection from="B3A3" to="A3B3" fromLane="1" toLane="1"/>

    <connection from="B3B2" to="B2A2" fromLane="0" toLane="0"/>
    <connection from="B3B2" to="B2B1" fromLane="0" toLane="0"/>
    <connection from="B3B2" to="B2B1" fromLane="1" toLane="1"/>
    <connection from="B3B2" to="B2C2" fromLane="1" toLane="1"/>
    <connection from="B3B2" to="B2B3" fromLane="1" toLane="1"/>

    <connection from="B3B4" to="B4C4" fromLane="0" toLane="0"/>
    <connection from="B3B4" to="B4top1" fromLane="0" toLane="0"/>
    <connection from="B3B4" to="B4top1" fromLane="1" toLane="1"/>
    <connection from="B3B4" to="B4A4" fromLane="1" toLane="1"/>
    <connection from="B3B4" to="B4B3" fromLane="1" toLane="1"/>

    <connection from="B3C3" to="C3C2" fromLane="0" toLane="0"/>
    <connection from="B3C3" to="C3D3" fromLane="0" toLane="0"/>
    <connection from="B3C3" to="C3D3" fromLane="1" toLane="1"/>
    <connection from="B3C3" to="C3C4" fromLane="1" toLane="1"/>
    <connection from="B3C3" to="C3B3" fromLane="1" toLane="1"/>

    <connection from="B4A4" to="A4top0" fromLane="0" toLane="0"/>
    <connection from="B4A4" to="A4left4" fromLane="0" toLane="0"/>
    <connection from="B4A4" to="A4left4" fromLane="1" toLane="1"/>
    <connection from="B4A4" to="A4A3" fromLane="1" toLane="1"/>
    <connection from="B4A4" to="A4B4" fromLane="1" toLane="1"/>

    <connection from="B4B3" to="B3A3" fromLane="0" toLane="0"/>
    <connection from="B4B3" to="B3B2" fromLane="0" toLane="0"/>
    <connection from="B4B3" to="B3B2" fromLane="1" toLane="1"/>
    <connection from="B4B3" to="B3C3" fromLane="1" toLane="1"/>
    <connection from="B4B3" to="B3B4" fromLane="1" toLane="1"/>

    <connection from="B4C4" to="C4C3" fromLane="0" toLane="0"/>
    <connection from="B4C4" to="C4D4" fromLane="0" toLane="0"/>
    <connection from="B4C4" to="C4D4" fromLane="1" toLane="1"/>
    <connection from="B4C4" to="C4top2" fromLane="1" toLane="1"/>
    <connection from="B4C4" to="C4B4" fromLane="1" toLane="1"/>

    <connection from="B4top1" to="top1B4" fromLane="1" toLane="1"/>

    <connection from="C0B0" to="B0B1" fromLane="0" toLane="0"/>
    <connection from="C0B0" to="B0A0" fromLane="0" toLane="0"/>
    <connection from="C0B0" to="B0A0" fromLane="1" toLane="1"/>
    <connection from="C0B0" to="B0bottom1" fromLane="1" toLane="1"/>
    <connection from="C0B0" to="B0C0" fromLane="1" toLane="1"/>

    <connection from="C0C1" to="C1D1" fromLane="0" toLane="0"/>
    <connection from="C0C1" to="C1C2" fromLane="0" toLane="0"/>
    <connection from="C0C1" to="C1C2" fromLane="1" toLane="1"/>
    <connection from="C0C1" to="C1B1" fromLane="1" toLane="1"/>
    <connection from="C0C1" to="C1C0" fromLane="1" toLane="1"/>

    <connection from="C0D0" to="D0bottom3" fromLane="0" toLane="0"/>
    <connection from="C0D0" to="D0E0" fromLane="0" toLane="0"/>
    <connection from="C0D0" to="D0E0" fromLane="1" toLane="1"/>
    <connection from="C0D0" to="D0D1" fromLane="1" toLane="1"/>
    <connection from="C0D0" to="D0C0" fromLane="1" toLane="1"/>

    <connection from="C0bottom2" to="bottom2C0" fromLane="1" toLane="1"/>

    <connection from="C1B1" to="B1B2" fromLane="0" toLane="0"/>
    <connection from="C1B1" to="B1A1" fromLane="0" toLane="0"/>
    <connection from="C1B1" to="B1A1" fromLane="1" toLane="1"/>
    <connection from="C1B1" to="B1B0" fromLane="1" toLane="1"/>
    <connection from="C1B1" to="B1C1" fromLane="1" toLane="1"/>

    <connection from="C1C0" to="C0B0" fromLane="0" toLane="0"/>
    <connection from="C1C0" to="C0bottom2" fromLane="0" toLane="0"/>
    <connection from="C1C0" to="C0bottom2" fromLane="1" toLane="1"/>
    <connection from="C1C0" to="C0D0" fromLane="1" toLane="1"/>
    <connection from="C1C0" to="C0C1" fromLane="1" toLane="1"/>

    <connection from="C1C2" to="C2D2" fromLane="0" toLane="0"/>
    <connection from="C1C2" to="C2C3" fromLane="0" toLane="0"/>
    <connection from="C1C2" to="C2C3" fromLane="1" toLane="1"/>
    <connection from="C1C2" to="C2B2" fromLane="1" toLane="1"/>
    <connection from="C1C2" to="C2C1" fromLane="1" toLane="1"/>

    <connection from="C1D1" to="D1D0" fromLane="0" toLane="0"/>
    <connection from="C1D1" to="D1E1" fromLane="0" toLane="0"/>
    <connection from="C1D1" to="D1E1" fromLane="1" toLane="1"/>
    <connection from="C1D1" to="D1D2" fromLane="1" toLane="1"/>
    <connection from="C1D1" to="D1C1" fromLane="1" toLane="1"/>

    <connection from="C2B2" to="B2B3" fromLane="0" toLane="0"/>
    <connection from="C2B2" to="B2A2" fromLane="0" toLane="0"/>
    <connection from="C2B2" to="B2A2" fromLane="1" toLane="1"/>
    <connection from="C2B2" to="B2B1" fromLane="1" toLane="1"/>
    <connection from="C2B2" to="B2C2" fromLane="1" toLane="1"/>

    <connection from="C2C1" to="C1B1" fromLane="0" toLane="0"/>
    <connection from="C2C1" to="C1C0" fromLane="0" toLane="0"/>
    <connection from="C2C1" to="C1C0" fromLane="1" toLane="1"/>
    <connection from="C2C1" to="C1D1" fromLane="1" toLane="1"/>
    <connection from="C2C1" to="C1C2" fromLane="1" toLane="1"/>

    <connection from="C2C3" to="C3D3" fromLane="0" toLane="0"/>
    <connection from="C2C3" to="C3C4" fromLane="0" toLane="0"/>
    <connection from="C2C3" to="C3C4" fromLane="1" toLane="1"/>
    <connection from="C2C3" to="C3B3" fromLane="1" toLane="1"/>
    <connection from="C2C3" to="C3C2" fromLane="1" toLane="1"/>

    <connection from="C2D2" to="D2D1" fromLane="0" toLane="0"/>
    <connection from="C2D2" to="D2E2" fromLane="0" toLane="0"/>
    <connection from="C2D2" to="D2E2" fromLane="1" toLane="1"/>
    <connection from="C2D2" to="D2D3" fromLane="1" toLane="1"/>
    <connection from="C2D2" to="D2C2" fromLane="1" toLane="1"/>

    <connection from="C3B3" to="B3B4" fromLane="0" toLane="0"/>
    <connection from="C3B3" to="B3A3" fromLane="0" toLane="0"/>
    <connection from="C3B3" to="B3A3" fromLane="1" toLane="1"/>
    <connection from="C3B3" to="B3B2" fromLane="1" toLane="1"/>
    <connection from="C3B3" to="B3C3" fromLane="1" toLane="1"/>

    <connection from="C3C2" to="C2B2" fromLane="0" toLane="0"/>
    <connection from="C3C2" to="C2C1" fromLane="0" toLane="0"/>
    <connection from="C3C2" to="C2C1" fromLane="1" toLane="1"/>
    <connection from="C3C2" to="C2D2" fromLane="1" toLane="1"/>
    <connection from="C3C2" to="C2C3" fromLane="1" toLane="1"/>

    <connection from="C3C4" to="C4D4" fromLane="0" toLane="0"/>
    <connection from="C3C4" to="C4top2" fromLane="0" toLane="0"/>
    <connection from="C3C4" to="C4top2" fromLane="1" toLane="1"/>
    <connection from="C3C4" to="C4B4" fromLane="1" toLane="1"/>
    <connection from="C3C4" to="C4C3" fromLane="1" toLane="1"/>

    <connection from="C3D3" to="D3D2" fromLane="0" toLane="0"/>
    <connection from="C3D3" to="D3E3" fromLane="0" toLane="0"/>
    <connection from="C3D3" to="D3E3" fromLane="1" toLane="1"/>
    <connection from="C3D3" to="D3D4" fromLane="1" toLane="1"/>
    <connection from="C3D3" to="D3C3" fromLane="1" toLane="1"/>

    <connection from="C4B4" to="B4top1" fromLane="0" toLane="0"/>
    <connection from="C4B4" to="B4A4" fromLane="0" toLane="0"/>
    <connection from="C4B4" to="B4A4" fromLane="1" toLane="1"/>
    <connection from="C4B4" to="B4B3" fromLane="1" toLane="1"/>
    <connection from="C4B4" to="B4C4" fromLane="1" toLane="1"/>

    <connection from="C4C3" to="C3B3" fromLane="0" toLane="0"/>
    <connection from="C4C3" to="C3C2" fromLane="0" toLane="0"/>
    <connection from="C4C3" to="C3C2" fromLane="1" toLane="1"/>
    <connection from="C4C3" to="C3D3" fromLane="1" toLane="1"/>
    <connection from="C4C3" to="C3C4" fromLane="1" toLane="1"/>

    <connection from="C4D4" to="D4D3" fromLane="0" toLane="0"/>
    <connection from="C4D4" to="D4E4" fromLane="0" toLane="0"/>
    <connection from="C4D4" to="D4E4" fromLane="1" toLane="1"/>
    <connection from="C4D4" to="D4top3" fromLane="1" toLane="1"/>
    <connection from="C4D4" to="D4C4" fromLane="1" toLane="1"/>

    <connection from="C4top2" to="top2C4" fromLane="1" toLane="1"/>

    <connection from="D0C0" to="C0C1" fromLane="0" toLane="0"/>
    <connection from="D0C0" to="C0B0" fromLane="0" toLane="0"/>
    <connection from="D0C0" to="C0B0" fromLane="1" toLane="1"/>
    <connection from="D0C0" to="C0bottom2" fromLane="1" toLane="1"/>
    <connection from="D0C0" to="C0D0" fromLane="1" toLane="1"/>

    <connection from="D0D1" to="D1E1" fromLane="0" toLane="0"/>
    <connection from="D0D1" to="D1D2" fromLane="0" toLane="0"/>
    <connection from="D0D1" to="D1D2" fromLane="1" toLane="1"/>
    <connection from="D0D1" to="D1C1" fromLane="1" toLane="1"/>
    <connection from="D0D1" to="D1D0" fromLane="1" toLane="1"/>

    <connection from="D0E0" to="E0bottom4" fromLane="0" toLane="0"/>
    <connection from="D0E0" to="E0right0" fromLane="0" toLane="0"/>
    <connection from="D0E0" to="E0right0" fromLane="1" toLane="1"/>
    <connection from="D0E0" to="E0E1" fromLane="1" toLane="1"/>
    <connection from="D0E0" to="E0D0" fromLane="1" toLane="1"/>

    <connection from="D0bottom3" to="bottom3D0" fromLane="1" toLane="1"/>

    <connection from="D1C1" to="C1C2" fromLane="0" toLane="0"/>
    <connection from="D1C1" to="C1B1" fromLane="0" toLane="0"/>
    <connection from="D1C1" to="C1B1" fromLane="1" toLane="1"/>
    <connection from="D1C1" to="C1C0" fromLane="1" toLane="1"/>
    <connection from="D1C1" to="C1D1" fromLane="1" toLane="1"/>

    <connection from="D1D0" to="D0C0" fromLane="0" toLane="0"/>
    <connection from="D1D0" to="D0bottom3" fromLane="0" toLane="0"/>
    <connection from="D1D0" to="D0bottom3" fromLane="1" toLane="1"/>
    <connection from="D1D0" to="D0E0" fromLane="1" toLane="1"/>
    <connection from="D1D0" to="D0D1" fromLane="1" toLane="1"/>

    <connection from="D1D2" to="D2E2" fromLane="0" toLane="0"/>
    <connection from="D1D2" to="D2D3" fromLane="0" toLane="0"/>
    <connection from="D1D2" to="D2D3" fromLane="1" toLane="1"/>
    <connection from="D1D2" to="D2C2" fromLane="1" toLane="1"/>
    <connection from="D1D2" to="D2D1" fromLane="1" toLane="1"/>

    <connection from="D1E1" to="E1E0" fromLane="0" toLane="0"/>
    <connection from="D1E1" to="E1right1" fromLane="0" toLane="0"/>
    <connection from="D1E1" to="E1right1" fromLane="1" toLane="1"/>
    <connection from="D1E1" to="E1E2" fromLane="1" toLane="1"/>
    <connection from="D1E1" to="E1D1" fromLane="1" toLane="1"/>

    <connection from="D2C2" to="C2C3" fromLane="0" toLane="0"/>
    <connection from="D2C2" to="C2B2" fromLane="0" toLane="0"/>
    <connection from="D2C2" to="C2B2" fromLane="1" toLane="1"/>
    <connection from="D2C2" to="C2C1" fromLane="1" toLane="1"/>
    <connection from="D2C2" to="C2D2" fromLane="1" toLane="1"/>

    <connection from="D2D1" to="D1C1" fromLane="0" toLane="0"/>
    <connection from="D2D1" to="D1D0" fromLane="0" toLane="0"/>
    <connection from="D2D1" to="D1D0" fromLane="1" toLane="1"/>
    <connection from="D2D1" to="D1E1" fromLane="1" toLane="1"/>
    <connection from="D2D1" to="D1D2" fromLane="1" toLane="1"/>

    <connection from="D2D3" to="D3E3" fromLane="0" toLane="0"/>
    <connection from="D2D3" to="D3D4" fromLane="0" toLane="0"/>
    <connection from="D2D3" to="D3D4" fromLane="1" toLane="1"/>
    <connection from="D2D3" to="D3C3" fromLane="1" toLane="1"/>
    <connection from="D2D3" to="D3D2" fromLane="1" toLane="1"/>

    <connection from="D2E2" to="E2E1" fromLane="0" toLane="0"/>
    <connection from="D2E2" to="E2right2" fromLane="0" toLane="0"/>
    <connection from="D2E2" to="E2right2" fromLane="1" toLane="1"/>
    <connection from="D2E2" to="E2E3" fromLane="1" toLane="1"/>
    <connection from="D2E2" to="E2D2" fromLane="1" toLane="1"/>

    <connection from="D3C3" to="C3C4" fromLane="0" toLane="0"/>
    <connection from="D3C3" to="C3B3" fromLane="0" toLane="0"/>
    <connection from="D3C3" to="C3B3" fromLane="1" toLane="1"/>
    <connection from="D3C3" to="C3C2" fromLane="1" toLane="1"/>
    <connection from="D3C3" to="C3D3" fromLane="1" toLane="1"/>

    <connection from="D3D2" to="D2C2" fromLane="0" toLane="0"/>
    <connection from="D3D2" to="D2D1" fromLane="0" toLane="0"/>
    <connection from="D3D2" to="D2D1" fromLane="1" toLane="1"/>
    <connection from="D3D2" to="D2E2" fromLane="1" toLane="1"/>
    <connection from="D3D2" to="D2D3" fromLane="1" toLane="1"/>

    <connection from="D3D4" to="D4E4" fromLane="0" toLane="0"/>
    <connection from="D3D4" to="D4top3" fromLane="0" toLane="0"/>
    <connection from="D3D4" to="D4top3" fromLane="1" toLane="1"/>
    <connection from="D3D4" to="D4C4" fromLane="1" toLane="1"/>
    <connection from="D3D4" to="D4D3" fromLane="1" toLane="1"/>

    <connection from="D3E3" to="E3E2" fromLane="0" toLane="0"/>
    <connection from="D3E3" to="E3right3" fromLane="0" toLane="0"/>
    <connection from="D3E3" to="E3right3" fromLane="1" toLane="1"/>
    <connection from="D3E3" to="E3E4" fromLane="1" toLane="1"/>
    <connection from="D3E3" to="E3D3" fromLane="1" toLane="1"/>

    <connection from="D4C4" to="C4top2" fromLane="0" toLane="0"/>
    <connection from="D4C4" to="C4B4" fromLane="0" toLane="0"/>
    <connection from="D4C4" to="C4B4" fromLane="1" toLane="1"/>
    <connection from="D4C4" to="C4C3" fromLane="1" toLane="1"/>
    <connection from="D4C4" to="C4D4" fromLane="1" toLane="1"/>

    <connection from="D4D3" to="D3C3" fromLane="0" toLane="0"/>
    <connection from="D4D3" to="D3D2" fromLane="0" toLane="0"/>
    <connection from="D4D3" to="D3D2" fromLane="1" toLane="1"/>
    <connection from="D4D3" to="D3E3" fromLane="1" toLane="1"/>
    <connection from="D4D3" to="D3D4" fromLane="1" toLane="1"/>

    <connection from="D4E4" to="E4E3" fromLane="0" toLane="0"/>
    <connection from="D4E4" to="E4right4" fromLane="0" toLane="0"/>
    <connection from="D4E4" to="E4right4" fromLane="1" toLane="1"/>
    <connection from="D4E4" to="E4top4" fromLane="1" toLane="1"/>
    <connection from="D4E4" to="E4D4" fromLane="1" toLane="1"/>

    <connection from="D4top3" to="top3D4" fromLane="1" toLane="1"/>

    <connection from="E0D0" to="D0D1" fromLane="0" toLane="0"/>
    <connection from="E0D0" to="D0C0" fromLane="0" toLane="0"/>
    <connection from="E0D0" to="D0C0" fromLane="1" toLane="1"/>
    <connection from="E0D0" to="D0bottom3" fromLane="1" toLane="1"/>
    <connection from="E0D0" to="D0E0" fromLane="1" toLane="1"/>

    <connection from="E0E1" to="E1right1" fromLane="0" toLane="0"/>
    <connection from="E0E1" to="E1E2" fromLane="0" toLane="0"/>
    <connection from="E0E1" to="E1E2" fromLane="1" toLane="1"/>
    <connection from="E0E1" to="E1D1" fromLane="1" toLane="1"/>
    <connection from="E0E1" to="E1E0" fromLane="1" toLane="1"/>

    <connection from="E0bottom4" to="bottom4E0" fromLane="1" toLane="1"/>

    <connection from="E0right0" to="right0E0" fromLane="1" toLane="1"/>

    <connection from="E1D1" to="D1D2" fromLane="0" toLane="0"/>
    <connection from="E1D1" to="D1C1" fromLane="0" toLane="0"/>
    <connection from="E1D1" to="D1C1" fromLane="1" toLane="1"/>
    <connection from="E1D1" to="D1D0" fromLane="1" toLane="1"/>
    <connection from="E1D1" to="D1E1" fromLane="1" toLane="1"/>

    <connection from="E1E0" to="E0D0" fromLane="0" toLane="0"/>
    <connection from="E1E0" to="E0bottom4" fromLane="0" toLane="0"/>
    <connection from="E1E0" to="E0bottom4" fromLane="1" toLane="1"/>
    <connection from="E1E0" to="E0right0" fromLane="1" toLane="1"/>
    <connection from="E1E0" to="E0E1" fromLane="1" toLane="1"/>

    <connection from="E1E2" to="E2right2" fromLane="0" toLane="0"/>
    <connection from="E1E2" to="E2E3" fromLane="0" toLane="0"/>
    <connection from="E1E2" to="E2E3" fromLane="1" toLane="1"/>
    <connection from="E1E2" to="E2D2" fromLane="1" toLane="1"/>
    <connection from="E1E2" to="E2E1" fromLane="1" toLane="1"/>

    <connection from="E1right1" to="right1E1" fromLane="1" toLane="1"/>

    <connection from="E2D2" to="D2D3" fromLane="0" toLane="0"/>
    <connection from="E2D2" to="D2C2" fromLane="0" toLane="0"/>
    <connection from="E2D2" to="D2C2" fromLane="1" toLane="1"/>
    <connection from="E2D2" to="D2D1" fromLane="1" toLane="1"/>
    <connection from="E2D2" to="D2E2" fromLane="1" toLane="1"/>

    <connection from="E2E1" to="E1D1" fromLane="0" toLane="0"/>
    <connection from="E2E1" to="E1E0" fromLane="0" toLane="0"/>
    <connection from="E2E1" to="E1E0" fromLane="1" toLane="1"/>
    <connection from="E2E1" to="E1right1" fromLane="1" toLane="1"/>
    <connection from="E2E1" to="E1E2" fromLane="1" toLane="1"/>

    <connection from="E2E3" to="E3right3" fromLane="0" toLane="0"/>
    <connection from="E2E3" to="E3E4" fromLane="0" toLane="0"/>
    <connection from="E2E3" to="E3E4" fromLane="1" toLane="1"/>
    <connection from="E2E3" to="E3D3" fromLane="1" toLane="1"/>
    <connection from="E2E3" to="E3E2" fromLane="1" toLane="1"/>

    <connection from="E2right2" to="right2E2" fromLane="1" toLane="1"/>

    <connection from="E3D3" to="D3D4" fromLane="0" toLane="0"/>
    <connection from="E3D3" to="D3C3" fromLane="0" toLane="0"/>
    <connection from="E3D3" to="D3C3" fromLane="1" toLane="1"/>
    <connection from="E3D3" to="D3D2" fromLane="1" toLane="1"/>
    <connection from="E3D3" to="D3E3" fromLane="1" toLane="1"/>

    <connection from="E3E2" to="E2D2" fromLane="0" toLane="0"/>
    <connection from="E3E2" to="E2E1" fromLane="0" toLane="0"/>
    <connection from="E3E2" to="E2E1" fromLane="1" toLane="1"/>
    <connection from="E3E2" to="E2right2" fromLane="1" toLane="1"/>
    <connection from="E3E2" to="E2E3" fromLane="1" toLane="1"/>

    <connection from="E3E4" to="E4right4" fromLane="0" toLane="0"/>
    <connection from="E3E4" to="E4top4" fromLane="0" toLane="0"/>
    <connection from="E3E4" to="E4top4" fromLane="1" toLane="1"/>
    <connection from="E3E4" to="E4D4" fromLane="1" toLane="1"/>
    <connection from="E3E4" to="E4E3" fromLane="1" toLane="1"/>

    <connection from="E3right3" to="right3E3" fromLane="1" toLane="1"/>

    <connection from="E4D4" to="D4top3" fromLane="0" toLane="0"/>
    <connection from="E4D4" to="D4C4" fromLane="0" toLane="0"/>
    <connection from="E4D4" to="D4C4" fromLane="1" toLane="1"/>
    <connection from="E4D4" to="D4D3" fromLane="1" toLane="1"/>
    <connection from="E4D4" to="D4E4" fromLane="1" toLane="1"/>

    <connection from="E4E3" to="E3D3" fromLane="0" toLane="0"/>
    <connection from="E4E3" to="E3E2" fromLane="0" toLane="0"/>
    <connection from="E4E3" to="E3E2" fromLane="1" toLane="1"/>
    <connection from="E4E3" to="E3right3" fromLane="1" toLane="1"/>
    <connection from="E4E3" to="E3E4" fromLane="1" toLane="1"/>

    <connection from="E4right4" to="right4E4" fromLane="1" toLane="1"/>

    <connection from="E4top4" to="top4E4" fromLane="1" toLane="1"/>

    <connection from="bottom0A0" to="A0B0" fromLane="0" toLane="0"/>
    <connection from="bottom0A0" to="A0A1" fromLane="0" toLane="0"/>
    <connection from="bottom0A0" to="A0A1" fromLane="1" toLane="1"/>
    <connection from="bottom0A0" to="A0left0" fromLane="1" toLane="1"/>
    <connection from="bottom0A0" to="A0bottom0" fromLane="1" toLane="1"/>

    <connection from="bottom1B0" to="B0C0" fromLane="0" toLane="0"/>
    <connection from="bottom1B0" to="B0B1" fromLane="0" toLane="0"/>
    <connection from="bottom1B0" to="B0B1" fromLane="1" toLane="1"/>
    <connection from="bottom1B0" to="B0A0" fromLane="1" toLane="1"/>
    <connection from="bottom1B0" to="B0bottom1" fromLane="1" toLane="1"/>

    <connection from="bottom2C0" to="C0D0" fromLane="0" toLane="0"/>
    <connection from="bottom2C0" to="C0C1" fromLane="0" toLane="0"/>
    <connection from="bottom2C0" to="C0C1" fromLane="1" toLane="1"/>
    <connection from="bottom2C0" to="C0B0" fromLane="1" toLane="1"/>
    <connection from="bottom2C0" to="C0bottom2" fromLane="1" toLane="1"/>

    <connection from="bottom3D0" to="D0E0" fromLane="0" toLane="0"/>
    <connection from="bottom3D0" to="D0D1" fromLane="0" toLane="0"/>
    <connection from="bottom3D0" to="D0D1" fromLane="1" toLane="1"/>
    <connection from="bottom3D0" to="D0C0" fromLane="1" toLane="1"/>
    <connection from="bottom3D0" to="D0bottom3" fromLane="1" toLane="1"/>
