<additional>

	<!--237105-->
	<tlLogic id="237105" type="static" programID="0" offset="0">
        <phase duration="32" state="GGrrrrGGGGGGrrGGGrrrrGGGGGGrrG"/>
        <phase duration="3" state="GGrrrrGGGGGGrrGGGrrrrGGGGyyrrG"/>
        <phase duration="22" state="GGrrrrGGGGGGGGGGGrrrrGGGGrrrrG"/>
        <phase duration="3" state="GGrrrrGGGGyyGGGGGrrrrGGGGrrrrG"/>
        <phase duration="22" state="GGrrrrGGGGrrGGGGGrrrrGGGGrrGGG"/>
        <phase duration="3" state="GGrrrrGGGGrryyGGGrrrrGGGGrryyG"/>
        <phase duration="41" state="GGGGrrGGGGrrrrGGGGGGrGGGGrrrrG"/>
        <phase duration="3" state="GGGGrrGGGGrrrrGGGyyyrGGGGrrrrG"/>
        <phase duration="11" state="GGGGrrGGGGrrrrGGGrrrrGGGGrrrrG"/>
        <phase duration="3" state="GGyyrrGGGGrrrrGGGrrrrGGGGrrrrG"/>
        <phase duration="42" state="GGrrGGGGGGrrrrGGGrrrGGGGGrrrrG"/>
        <phase duration="3" state="GGrryyGGGGrrrrGGGrrryGGGGrrrrG"/>
    </tlLogic>
   
    <!--253864-->

	<tlLogic id="253864" type="static" programID="0" offset="0">
        <phase duration="15" state="GGGGGGGGrGrr"/>
        <phase duration="3" state="yyyyGyyyrGrr"/>
        <phase duration="15" state="rrrrGrrrGGGG"/>
        <phase duration="3" state="rrrrGrrryGyy"/>
    </tlLogic>
    
    
	<!--253866-->

	<tlLogic id="253866" type="static" programID="0" offset="0">
        <phase duration="15" state="GGGGGrrrrrGGGG"/>
        <phase duration="3" state="Gyyyyrrrrryyyy"/>
        <phase duration="15" state="GrrrrGGGGGrrrr"/>
        <phase duration="3" state="Grrrryyyyyrrrr"/>
    </tlLogic>

    
	<!--257974-->
	
	<tlLogic id="257974" type="static" programID="0" offset="0">
        <phase duration="50" state="GGGGGrrrrGGGGGrrr"/>
        <phase duration="3" state="GyyyGrrrrGyyGGrrr"/>
        <phase duration="11" state="GrrrGrrrrGrrGGGGG"/>
        <phase duration="13" state="GrrrGGGrrGrrGGGGr"/>
        <phase duration="3" state="GrrrGGGrrGrrGGyyr"/>
        <phase duration="15" state="GrrrGGGGGGrrGGrrr"/>
        <phase duration="3" state="GrrrGyyyyGrrGGrrr"/>
    </tlLogic>
	

    <!--237105--> 
	 <tlLogic id="237105" type="static" programID="6" offset="0">
        <phase duration="40" state="GGrrrrGGGGGGrrGGGrrrrGGGGGGrrG"/>
        <phase duration="3" state="GGrrrrGGGGyyrrGGGrrrrGGGGyyrrG"/>
        <phase duration="30" state="GGrrrrGGGGrrGGGGGrrrrGGGGrrGGG"/>
        <phase duration="3" state="GGrrrrGGGGrryyGGGrrrrGGGGrryyG"/>
        <phase duration="41" state="GGGGrrGGGGrrrrGGGGGGrGGGGrrrrG"/>
        <phase duration="3" state="GGGGrrGGGGrrrrGGGyyyrGGGGrrrrG"/>
        <phase duration="16" state="GGGGrrGGGGrrrrGGGrrrrGGGGrrrrG"/>
        <phase duration="3" state="GGyyrrGGGGrrrrGGGrrrrGGGGrrrrG"/>
        <phase duration="35" state="GGrrGGGGGGrrrrGGGrrrGGGGGrrrrG"/>
        <phase duration="3" state="GGrryyGGGGrrrrGGGrrryGGGGrrrrG"/>
    </tlLogic>
		
	<!--253866-->

	<tlLogic id="253866" type="static" programID="7" offset="0">
        <phase duration="43" state="GGGGGGGrrrGGGr"/>
        <phase duration="3" state="GyyyyGGrrryyyr"/>
        <phase duration="15" state="GrrrrGGrrrrrrG"/>
        <phase duration="3" state="GrrrrGGrrrrrry"/>
        <phase duration="29" state="GrrrrGGGGGrrrr"/>
        <phase duration="3" state="GrrrrGGyyyrrrr"/>
    </tlLogic>
    <!--253864-->
	<tlLogic id="253864" type="static" programID="7" offset="0">
        <phase duration="42" state="GGGrGGGGrGrr"/>
        <phase duration="3" state="yyyrGyyyrGrr"/>
        <phase duration="25" state="rrrGGrrrrGrr"/>
        <phase duration="3" state="rrryGrrrrGrr"/>
        <phase duration="17" state="rrrrGrrrGGGG"/>
        <phase duration="3" state="rrrrGrrryGyy"/>
    </tlLogic>

	<!--253866-->
	<tlLogic id="253866" type="static" programID="22" offset="0">
        <phase duration="25" state="GGGGGrrrrrGGGG"/>
        <phase duration="3" state="Gyyyyrrrrryyyy"/>
        <phase duration="15" state="GrrrrGGGGGrrrr"/>
        <phase duration="3" state="Grrrryyyyyrrrr"/>
    </tlLogic>
    <!--253864-->

	<tlLogic id="253864" type="static" programID="22" offset="0">
        <phase duration="35" state="GGGGGGGGrGrr"/>
        <phase duration="3" state="yyyyGyyyrGrr"/>
        <phase duration="15" state="rrrrGrrrGGGG"/>
        <phase duration="3" state="rrrrGrrryGyy"/>
    </tlLogic>
	
    <!--237105-->

	<tlLogic id="237105" type="static" programID="22" offset="0">
        <phase duration="32" state="GGrrrrGGGGGGrrGGGrrrrGGGGGGrrG"/>
        <phase duration="3" state="GGrrrrGGGGGGrrGGGrrrrGGGGyyrrG"/>
        <phase duration="22" state="GGrrrrGGGGGGGGGGGrrrrGGGGrrrrG"/>
        <phase duration="3" state="GGrrrrGGGGyyGGGGGrrrrGGGGrrrrG"/>
        <phase duration="22" state="GGrrrrGGGGrrGGGGGrrrrGGGGrrGGG"/>
        <phase duration="3" state="GGrrrrGGGGrryyGGGrrrrGGGGrryyG"/>
        <phase duration="41" state="GGGGrrGGGGrrrrGGGGGGrGGGGrrrrG"/>
        <phase duration="3" state="GGGGrrGGGGrrrrGGGyyyrGGGGrrrrG"/>
        <phase duration="11" state="GGGGrrGGGGrrrrGGGrrrrGGGGrrrrG"/>
        <phase duration="3" state="GGyyrrGGGGrrrrGGGrrrrGGGGrrrrG"/>
        <phase duration="42" state="GGrrGGGGGGrrrrGGGrrrGGGGGrrrrG"/>
        <phase duration="3" state="GGrryyGGGGrrrrGGGrrryGGGGrrrrG"/>
    </tlLogic>


    <WAUT startProg="-1" refTime="0" id="w0">
      <wautSwitch to="0" time="1"/>
    </WAUT>

    <WAUT startProg="-1" refTime="0" id="w2">
      <wautSwitch to="6" time="21600"/>
    </WAUT>

    <WAUT startProg="-1" refTime="0" id="w3">
      <wautSwitch to="7" time="23400"/>
    </WAUT>

    <WAUT startProg="-1" refTime="0" id="w9">
      <wautSwitch to="22" time="73800"/>
    </WAUT>


    <wautJunction junctionID="253866" wautID="w0"/>
    <wautJunction junctionID="253864" wautID="w0"/>
	<wautJunction junctionID="237105" wautID="w0"/>
    <wautJunction junctionID="257974" wautID="w0"/>
    

    <wautJunction junctionID="237105" wautID="w2"/>

    <wautJunction junctionID="253864" wautID="w3"/>
    <wautJunction junctionID="253866" wautID="w3"/>



    <wautJunction junctionID="253866" wautID="w9"/>
    <wautJunction junctionID="237105" wautID="w9"/>
    <wautJunction junctionID="253864" wautID="w9"/>


</additional>







