<?xml version="1.0" encoding="UTF-8"?>

<!-- generated on 2018/10/16 9:11:32 by Netedit Version 0.32.0
<?xml version="1.0" encoding="UTF-8"?>

<configuration xmlns:xsi="http://www.w3.org/2001/XMLSchema-instance" xsi:noNamespaceSchemaLocation="http://sumo.dlr.de/xsd/netconvertConfiguration.xsd">

    <input>
        <sumo-net-file value="E:\HF_SUPER_BRAIN\wuhu_huizhou_single\net\hefei_area_v12.net.xml"/>
    </input>

    <output>
        <output-file value="E:\HF_SUPER_BRAIN\wuhu_huizhou_single\net\hefei_area_v12.net.xml"/>
    </output>

    <processing>
        <no-turnarounds value="true"/>
        <offset.disable-normalization value="true"/>
        <lefthand value="false"/>
        <junctions.corner-detail value="0"/>
        <rectangular-lane-cut value="false"/>
        <walkingareas value="false"/>
    </processing>

</configuration>
-->

<net version="0.27" xmlns:xsi="http://www.w3.org/2001/XMLSchema-instance" xsi:noNamespaceSchemaLocation="http://sumo.dlr.de/xsd/net_file.xsd">

    <location netOffset="-523213.93,-3519711.08" convBoundary="3157.77,852.51,5235.23,5564.12" origBoundary="117.245367,31.812774,117.300740,31.874330" projParameter="+proj=utm +zone=50 +ellps=WGS84 +datum=WGS84 +units=m +no_defs"/>

    <edge id=":12438153_0" function="internal">
        <lane id=":12438153_0_0" index="0" speed="16.67" length="0.30" shape="3347.45,5087.43 3347.41,5087.10"/>
        <lane id=":12438153_0_1" index="1" speed="16.67" length="0.30" shape="3350.73,5087.08 3350.70,5086.77"/>
        <lane id=":12438153_0_2" index="2" speed="16.67" length="0.30" shape="3354.01,5086.73 3353.98,5086.45"/>
        <lane id=":12438153_0_3" index="3" speed="16.67" length="0.30" shape="3357.29,5086.38 3357.27,5086.12"/>
    </edge>
    <edge id=":12438177_0" function="internal">
        <lane id=":12438177_0_0" index="0" speed="16.67" length="3.36" shape="3475.39,4739.64 3471.36,4741.54"/>
        <lane id=":12438177_0_1" index="1" speed="16.67" length="3.36" shape="3475.39,4739.64 3472.62,4738.49"/>
        <lane id=":12438177_0_2" index="2" speed="16.67" length="3.36" shape="3476.66,4736.60 3473.89,4735.45"/>
        <lane id=":12438177_0_3" index="3" speed="16.67" length="3.36" shape="3477.92,4733.55 3475.15,4732.40"/>
    </edge>
    <edge id=":12438178_0" function="internal">
        <lane id=":12438178_0_0" index="0" speed="16.67" length="3.00" shape="3530.43,4744.38 3533.20,4745.53"/>
        <lane id=":12438178_0_1" index="1" speed="16.67" length="3.00" shape="3529.16,4747.43 3531.93,4748.58"/>
        <lane id=":12438178_0_2" index="2" speed="16.67" length="3.00" shape="3527.90,4750.48 3530.66,4751.62"/>
    </edge>
    <edge id=":15452347_0" function="internal">
        <lane id=":15452347_0_0" index="0" speed="11.11" length="4.82" shape="3176.32,4883.89 3175.22,4882.89 3174.94,4882.01 3175.47,4881.26 3176.82,4880.63"/>
    </edge>
    <edge id=":15452348_0" function="internal">
        <lane id=":15452348_0_0" index="0" speed="16.67" length="0.30" shape="3345.32,5066.14 3345.29,5065.86"/>
        <lane id=":15452348_0_1" index="1" speed="16.67" length="0.30" shape="3348.61,5065.81 3348.58,5065.52"/>
        <lane id=":15452348_0_2" index="2" speed="16.67" length="0.30" shape="3351.89,5065.48 3351.86,5065.18"/>
        <lane id=":15452348_0_3" index="3" speed="16.67" length="0.30" shape="3355.17,5065.15 3355.14,5064.84"/>
    </edge>
    <edge id=":15452351_0" function="internal">
        <lane id=":15452351_0_0" index="0" speed="10.28" length="0.30" shape="3423.49,5524.40 3423.53,5524.65"/>
        <lane id=":15452351_0_1" index="1" speed="10.28" length="0.30" shape="3420.22,5524.84 3420.26,5525.12"/>
        <lane id=":15452351_0_2" index="2" speed="10.28" length="0.30" shape="3416.95,5525.28 3417.00,5525.58"/>
        <lane id=":15452351_0_3" index="3" speed="10.28" length="0.30" shape="3413.68,5525.72 3413.73,5526.05"/>
    </edge>
    <edge id=":15452352_0" function="internal">
        <lane id=":15452352_0_0" index="0" speed="10.28" length="19.28" shape="3428.91,5562.49 3424.39,5571.87 3419.07,5575.53 3412.95,5573.47 3406.04,5565.68"/>
        <lane id=":15452352_0_1" index="1" speed="10.28" length="19.28" shape="3425.65,5562.96 3422.42,5569.66 3418.62,5572.27 3414.25,5570.80 3409.31,5565.24"/>
        <lane id=":15452352_0_2" index="2" speed="10.28" length="19.28" shape="3422.38,5563.42 3420.44,5567.44 3418.16,5569.01 3415.54,5568.13 3412.58,5564.79"/>
        <lane id=":15452352_0_3" index="3" speed="10.28" length="19.28" shape="3419.11,5563.89 3418.47,5565.23 3417.71,5565.75 3416.83,5565.46 3415.85,5564.34"/>
    </edge>
    <edge id=":237105_0" function="internal">
        <lane id=":237105_0_0" index="0" speed="16.67" length="30.70" shape="3307.47,4692.43 3305.90,4683.66 3302.81,4676.62 3298.20,4671.33 3292.08,4667.78"/>
    </edge>
    <edge id=":237105_1" function="internal">
        <lane id=":237105_1_0" index="0" speed="16.67" length="32.72" shape="3307.47,4692.43 3305.86,4682.09 3302.96,4674.02 3298.76,4668.23 3293.28,4664.70"/>
    </edge>
    <edge id=":237105_2" function="internal">
        <lane id=":237105_2_0" index="0" speed="16.67" length="48.71" shape="3310.76,4692.15 3307.24,4643.52"/>
        <lane id=":237105_2_1" index="1" speed="16.67" length="48.71" shape="3314.05,4691.86 3310.54,4643.32"/>
    </edge>
    <edge id=":237105_4" function="internal">
        <lane id=":237105_4_0" index="0" speed="16.67" length="47.23" shape="3317.33,4691.57 3318.15,4678.01 3323.35,4670.23 3332.94,4668.24 3346.92,4672.03"/>
    </edge>
    <edge id=":237105_5" function="internal">
        <lane id=":237105_5_0" index="0" speed="16.67" length="39.71" shape="3320.62,4691.29 3321.32,4679.95 3325.72,4673.48 3333.84,4671.85 3345.66,4675.08"/>
    </edge>
    <edge id=":237105_6" function="internal">
        <lane id=":237105_6_0" index="0" speed="16.67" length="4.94" shape="3320.62,4691.29 3321.35,4689.95 3322.16,4689.45 3323.04,4689.80 3323.99,4690.99"/>
    </edge>
    <edge id=":237105_7" function="internal">
        <lane id=":237105_7_0" index="0" speed="16.67" length="5.73" shape="3340.60,4687.30 3338.95,4686.87 3337.83,4687.15 3337.22,4688.14 3337.14,4689.84"/>
    </edge>
    <edge id=":237105_8" function="internal">
        <lane id=":237105_8_0" index="0" speed="16.67" length="9.58" shape="3340.60,4687.30 3337.46,4686.35 3335.29,4686.51 3334.08,4687.76 3333.85,4690.13"/>
    </edge>
    <edge id=":237105_9" function="internal">
        <lane id=":237105_9_0" index="0" speed="16.67" length="13.49" shape="3340.60,4687.30 3335.96,4685.84 3332.74,4685.86 3330.95,4687.39 3330.57,4690.42"/>
    </edge>
    <edge id=":237105_10" function="internal">
        <lane id=":237105_10_0" index="0" speed="16.67" length="52.41" shape="3341.86,4684.26 3293.28,4664.70"/>
        <lane id=":237105_10_1" index="1" speed="16.67" length="52.41" shape="3343.12,4681.21 3294.47,4661.63"/>
    </edge>
    <edge id=":237105_12" function="internal">
        <lane id=":237105_12_0" index="0" speed="16.67" length="49.07" shape="3344.39,4678.16 3331.53,4671.43 3322.16,4663.35 3316.26,4653.91 3313.83,4643.12"/>
    </edge>
    <edge id=":237105_13" function="internal">
        <lane id=":237105_13_0" index="0" speed="16.67" length="47.13" shape="3344.39,4678.16 3333.01,4671.94 3324.68,4664.00 3319.38,4654.33 3317.13,4642.92"/>
    </edge>
    <edge id=":237105_14" function="internal">
        <lane id=":237105_14_0" index="0" speed="16.67" length="4.86" shape="3344.39,4678.16 3343.55,4676.91 3343.48,4675.98 3344.19,4675.38 3345.66,4675.08"/>
    </edge>
    <edge id=":237105_15" function="internal">
        <lane id=":237105_15_0" index="0" speed="16.67" length="30.43" shape="3333.60,4641.94 3334.99,4650.15 3338.09,4656.88 3342.91,4662.14 3349.44,4665.94"/>
    </edge>
    <edge id=":237105_16" function="internal">
        <lane id=":237105_16_0" index="0" speed="16.67" length="32.39" shape="3333.60,4641.94 3334.99,4651.71 3337.89,4659.47 3342.28,4665.23 3348.18,4668.98"/>
    </edge>
    <edge id=":237105_17" function="internal">
        <lane id=":237105_17_0" index="0" speed="16.67" length="48.21" shape="3330.30,4642.14 3333.85,4690.13"/>
        <lane id=":237105_17_1" index="1" speed="16.67" length="48.21" shape="3327.01,4642.33 3330.57,4690.42"/>
        <lane id=":237105_17_2" index="2" speed="16.67" length="48.21" shape="3323.71,4642.53 3327.28,4690.70"/>
    </edge>
    <edge id=":237105_20" function="internal">
        <lane id=":237105_20_0" index="0" speed="16.67" length="38.33" shape="3320.42,4642.73 3319.46,4653.49 3315.01,4659.72 3307.08,4661.41 3295.67,4658.55"/>
    </edge>
    <edge id=":237105_21" function="internal">
        <lane id=":237105_21_0" index="0" speed="16.67" length="4.82" shape="3320.42,4642.73 3319.67,4644.01 3318.87,4644.47 3318.02,4644.11 3317.13,4642.92"/>
    </edge>
    <edge id=":237105_22" function="internal">
        <lane id=":237105_22_0" index="0" speed="16.67" length="5.63" shape="3300.46,4646.25 3302.08,4646.64 3303.20,4646.34 3303.82,4645.37 3303.95,4643.71"/>
    </edge>
    <edge id=":237105_23" function="internal">
        <lane id=":237105_23_0" index="0" speed="16.67" length="9.35" shape="3300.46,4646.25 3303.55,4647.12 3305.71,4646.95 3306.94,4645.75 3307.24,4643.52"/>
    </edge>
    <edge id=":237105_24" function="internal">
        <lane id=":237105_24_0" index="0" speed="16.67" length="13.14" shape="3300.46,4646.25 3305.03,4647.60 3308.23,4647.56 3310.07,4646.14 3310.54,4643.32"/>
    </edge>
    <edge id=":237105_25" function="internal">
        <lane id=":237105_25_0" index="0" speed="16.67" length="52.68" shape="3299.27,4649.33 3348.18,4668.98"/>
        <lane id=":237105_25_1" index="1" speed="16.67" length="52.68" shape="3298.07,4652.40 3346.92,4672.03"/>
    </edge>
    <edge id=":237105_27" function="internal">
        <lane id=":237105_27_0" index="0" speed="16.67" length="49.16" shape="3296.87,4655.48 3309.38,4661.81 3318.62,4669.80 3324.58,4679.43 3327.28,4690.70"/>
    </edge>
    <edge id=":237105_28" function="internal">
        <lane id=":237105_28_0" index="0" speed="16.67" length="47.26" shape="3296.87,4655.48 3307.89,4661.33 3316.08,4669.20 3321.45,4679.09 3323.99,4690.99"/>
    </edge>
    <edge id=":237105_29" function="internal">
        <lane id=":237105_29_0" index="0" speed="16.67" length="4.82" shape="3296.87,4655.48 3297.72,4656.69 3297.81,4657.61 3297.12,4658.23 3295.67,4658.55"/>
    </edge>
    <edge id=":250161_0" function="internal">
        <lane id=":250161_0_0" index="0" speed="16.67" length="3.00" shape="3335.64,4748.49 3335.90,4751.49"/>
        <lane id=":250161_0_1" index="1" speed="16.67" length="3.00" shape="3332.35,4748.78 3332.61,4751.77"/>
        <lane id=":250161_0_2" index="2" speed="16.67" length="3.00" shape="3329.06,4749.07 3329.32,4752.05"/>
    </edge>
    <edge id=":253864_0" function="internal">
        <lane id=":253864_0_0" index="0" speed="16.67" length="12.87" shape="3359.86,5202.75 3359.93,5198.99 3360.77,5196.43 3361.63,5193.87 3361.75,5190.11"/>
        <lane id=":253864_0_1" index="1" speed="16.67" length="12.87" shape="3363.13,5202.35 3363.20,5198.61 3364.05,5196.06 3364.91,5193.51 3365.03,5189.76"/>
        <lane id=":253864_0_2" index="2" speed="16.67" length="12.87" shape="3366.41,5201.96 3366.48,5198.23 3367.33,5195.69 3368.19,5193.15 3368.31,5189.41"/>
    </edge>
    <edge id=":253864_3" function="internal">
        <lane id=":253864_3_0" index="0" speed="15.28" length="19.47" shape="3369.69,5201.56 3370.35,5198.37 3373.29,5196.55 3378.49,5196.09 3385.97,5197.00"/>
    </edge>
    <edge id=":253864_4" function="internal">
        <lane id=":253864_4_0" index="0" speed="15.28" length="8.32" shape="3381.46,5188.00 3381.97,5190.20 3382.99,5191.89 3384.52,5193.08 3386.57,5193.76"/>
    </edge>
    <edge id=":253864_5" function="internal">
        <lane id=":253864_5_0" index="0" speed="16.67" length="12.69" shape="3378.18,5188.35 3379.07,5191.92 3380.45,5194.17 3381.85,5196.42 3382.79,5199.98"/>
        <lane id=":253864_5_1" index="1" speed="16.67" length="12.69" shape="3374.90,5188.71 3375.79,5192.29 3377.17,5194.55 3378.57,5196.80 3379.52,5200.38"/>
        <lane id=":253864_5_2" index="2" speed="16.67" length="12.69" shape="3371.62,5189.06 3372.51,5192.65 3373.89,5194.92 3375.29,5197.19 3376.24,5200.77"/>
    </edge>
    <edge id=":253864_8" function="internal">
        <lane id=":253864_8_0" index="0" speed="15.28" length="5.46" shape="3355.24,5194.16 3356.77,5193.63 3357.82,5192.85 3358.38,5191.79 3358.47,5190.46"/>
    </edge>
    <edge id=":253864_9" function="internal">
        <lane id=":253864_9_0" index="0" speed="13.89" length="31.51" shape="3355.24,5194.16 3362.87,5192.94 3370.88,5192.47 3378.90,5192.75 3386.57,5193.76"/>
    </edge>
    <edge id=":253864_10" function="internal">
        <lane id=":253864_10_0" index="0" speed="15.28" length="22.58" shape="3355.94,5197.38 3364.48,5196.00 3370.70,5196.11 3374.63,5197.70 3376.24,5200.77"/>
    </edge>
    <edge id=":253864_11" function="internal">
        <lane id=":253864_11_0" index="0" speed="15.28" length="19.39" shape="3355.94,5197.38 3363.06,5196.29 3368.27,5196.56 3371.57,5198.19 3372.96,5201.17"/>
    </edge>
    <edge id=":253866_0" function="internal">
        <lane id=":253866_0_0" index="0" speed="15.28" length="8.13" shape="3386.13,5420.00 3385.56,5417.28 3384.67,5415.34 3383.48,5414.17 3381.98,5413.78"/>
    </edge>
    <edge id=":253866_1" function="internal">
        <lane id=":253866_1_0" index="0" speed="16.67" length="9.50" shape="3386.13,5420.00 3384.89,5410.50"/>
        <lane id=":253866_1_1" index="1" speed="16.67" length="9.50" shape="3389.40,5419.56 3388.16,5410.11"/>
        <lane id=":253866_1_2" index="2" speed="16.67" length="9.50" shape="3392.68,5419.11 3391.44,5409.72"/>
        <lane id=":253866_1_3" index="3" speed="16.67" length="9.50" shape="3395.95,5418.67 3394.72,5409.32"/>
    </edge>
    <edge id=":253866_5" function="internal">
        <lane id=":253866_5_0" index="0" speed="15.28" length="5.15" shape="3411.88,5413.59 3410.46,5413.82 3409.51,5414.45 3409.03,5415.48 3409.02,5416.91"/>
    </edge>
    <edge id=":253866_6" function="internal">
        <lane id=":253866_6_0" index="0" speed="15.28" length="11.41" shape="3411.88,5413.59 3407.56,5413.91 3404.55,5414.71 3402.86,5416.01 3402.48,5417.79"/>
    </edge>
    <edge id=":253866_7" function="internal">
        <lane id=":253866_7_0" index="0" speed="13.89" length="29.90" shape="3411.88,5413.59 3381.98,5413.78"/>
    </edge>
    <edge id=":253866_8" function="internal">
        <lane id=":253866_8_0" index="0" speed="15.28" length="21.53" shape="3411.88,5413.59 3403.13,5413.45 3396.80,5412.76 3392.91,5411.51 3391.44,5409.72"/>
    </edge>
    <edge id=":253866_9" function="internal">
        <lane id=":253866_9_0" index="0" speed="15.28" length="18.55" shape="3411.88,5413.59 3404.57,5413.41 3399.28,5412.64 3395.99,5411.27 3394.72,5409.32"/>
    </edge>
    <edge id=":253866_10" function="internal">
        <lane id=":253866_10_0" index="0" speed="16.67" length="9.55" shape="3407.82,5407.74 3409.02,5416.91"/>
        <lane id=":253866_10_1" index="1" speed="16.67" length="9.55" shape="3404.55,5408.14 3405.75,5417.35"/>
        <lane id=":253866_10_2" index="2" speed="16.67" length="9.55" shape="3401.27,5408.53 3401.10,5411.43 3400.21,5413.39 3399.33,5415.34 3399.20,5418.24"/>
    </edge>
    <edge id=":253866_13" function="internal">
        <lane id=":253866_13_0" index="0" speed="15.28" length="17.96" shape="3397.99,5408.93 3397.21,5411.06 3394.28,5412.58 3389.20,5413.49 3381.98,5413.78"/>
    </edge>
    <edge id=":256689_0" function="internal">
        <lane id=":256689_0_0" index="0" speed="13.89" length="4.82" shape="3492.43,4931.89 3493.51,4932.92 3493.78,4933.80 3493.23,4934.55 3491.87,4935.15"/>
    </edge>
    <edge id=":257974_0" function="internal">
        <lane id=":257974_0_0" index="0" speed="13.89" length="15.75" shape="3330.46,4919.33 3329.50,4915.34 3327.49,4912.29 3324.43,4910.18 3320.33,4909.01"/>
    </edge>
    <edge id=":257974_1" function="internal">
        <lane id=":257974_1_0" index="0" speed="16.67" length="23.41" shape="3333.75,4919.00 3331.56,4895.64"/>
        <lane id=":257974_1_1" index="1" speed="16.67" length="23.41" shape="3337.03,4918.66 3334.85,4895.35"/>
        <lane id=":257974_1_2" index="2" speed="16.67" length="23.41" shape="3340.31,4918.32 3338.14,4895.05"/>
    </edge>
    <edge id=":257974_4" function="internal">
        <lane id=":257974_4_0" index="0" speed="15.28" length="5.37" shape="3353.40,4914.32 3351.87,4914.28 3350.83,4914.76 3350.27,4915.76 3350.21,4917.30"/>
    </edge>
    <edge id=":257974_5" function="internal">
        <lane id=":257974_5_0" index="0" speed="12.50" length="33.54" shape="3353.40,4914.32 3320.33,4909.01"/>
        <lane id=":257974_5_1" index="1" speed="12.50" length="33.54" shape="3353.97,4911.07 3320.82,4905.75"/>
    </edge>
    <edge id=":257974_7" function="internal">
        <lane id=":257974_7_0" index="0" speed="15.28" length="26.74" shape="3353.97,4911.07 3346.03,4908.91 3340.19,4905.57 3336.47,4901.05 3334.85,4895.35"/>
    </edge>
    <edge id=":257974_8" function="internal">
        <lane id=":257974_8_0" index="0" speed="15.28" length="24.45" shape="3353.97,4911.07 3347.50,4909.11 3342.70,4905.79 3339.58,4901.10 3338.14,4895.05"/>
    </edge>
    <edge id=":257974_9" function="internal">
        <lane id=":257974_9_0" index="0" speed="15.28" length="13.58" shape="3348.05,4894.17 3348.79,4898.31 3350.21,4901.42 3352.32,4903.51 3355.11,4904.57"/>
    </edge>
    <edge id=":257974_10" function="internal">
        <lane id=":257974_10_0" index="0" speed="16.67" length="23.30" shape="3344.76,4894.46 3346.93,4917.64"/>
        <lane id=":257974_10_1" index="1" speed="16.67" length="23.30" shape="3341.47,4894.76 3343.65,4917.97"/>
    </edge>
    <edge id=":257974_12" function="internal">
        <lane id=":257974_12_0" index="0" speed="13.89" length="5.31" shape="3321.81,4899.22 3323.32,4899.23 3324.35,4898.74 3324.91,4897.73 3324.99,4896.23"/>
    </edge>
    <edge id=":257974_13" function="internal">
        <lane id=":257974_13_0" index="0" speed="13.89" length="8.59" shape="3321.81,4899.22 3324.78,4899.40 3326.85,4898.92 3328.02,4897.76 3328.28,4895.93"/>
    </edge>
    <edge id=":257974_14" function="internal">
        <lane id=":257974_14_0" index="0" speed="12.50" length="33.69" shape="3321.81,4899.22 3355.11,4904.57"/>
        <lane id=":257974_14_1" index="1" speed="12.50" length="33.69" shape="3321.31,4902.48 3354.54,4907.82"/>
    </edge>
    <edge id=":257974_16" function="internal">
        <lane id=":257974_16_0" index="0" speed="13.89" length="29.23" shape="3321.31,4902.48 3330.61,4904.65 3337.43,4907.95 3341.78,4912.39 3343.65,4917.97"/>
    </edge>
    <edge id=":53690045_0" function="internal">
        <lane id=":53690045_0_0" index="0" speed="16.67" length="3.36" shape="3363.16,5042.90 3366.75,5045.55"/>
        <lane id=":53690045_0_1" index="1" speed="16.67" length="3.36" shape="3363.16,5042.90 3363.47,5045.89"/>
        <lane id=":53690045_0_2" index="2" speed="16.67" length="3.36" shape="3359.88,5043.24 3360.19,5046.22"/>
        <lane id=":53690045_0_3" index="3" speed="16.67" length="3.36" shape="3356.60,5043.58 3356.91,5046.56"/>
    </edge>
    <edge id=":53690222_0" function="internal">
        <lane id=":53690222_0_0" index="0" speed="16.67" length="0.30" shape="3318.30,4821.20 3318.27,4820.87"/>
        <lane id=":53690222_0_1" index="1" speed="16.67" length="0.30" shape="3321.59,4820.90 3321.56,4820.59"/>
        <lane id=":53690222_0_2" index="2" speed="16.67" length="0.30" shape="3324.87,4820.61 3324.85,4820.31"/>
        <lane id=":53690222_0_3" index="3" speed="16.67" length="0.30" shape="3328.16,4820.32 3328.14,4820.04"/>
        <lane id=":53690222_0_4" index="4" speed="16.67" length="0.30" shape="3331.45,4820.02 3331.43,4819.76"/>
    </edge>

    <edge id="-173921" from="257974" to="256689" priority="-1" length="150.00">
        <lane id="-173921_0" index="0" speed="13.89" length="150.00" shape="3355.11,4904.57 3493.00,4928.64"/>
        <lane id="-173921_1" index="1" speed="13.89" length="150.00" shape="3354.54,4907.82 3492.43,4931.89"/>
    </edge>
    <edge id="-20452469" from="15452347" to="257974" priority="-1" length="150.00">
        <lane id="-20452469_0" index="0" speed="11.11" length="150.00" shape="3177.31,4877.37 3321.81,4899.22"/>
        <lane id="-20452469_1" index="1" speed="11.11" length="150.00" shape="3176.82,4880.63 3321.31,4902.48"/>
    </edge>
    <edge id="15027622" from="12438153" to="15452348" priority="-1" length="22.00">
        <lane id="15027622_0" index="0" speed="16.67" length="22.00" shape="3347.41,5087.10 3345.32,5066.14"/>
        <lane id="15027622_1" index="1" speed="16.67" length="22.00" shape="3350.70,5086.77 3348.61,5065.81"/>
        <lane id="15027622_2" index="2" speed="16.67" length="22.00" shape="3353.98,5086.45 3351.89,5065.48"/>
        <lane id="15027622_3" index="3" speed="16.67" length="22.00" shape="3357.27,5086.12 3355.17,5065.15"/>
    </edge>
    <edge id="15027623" from="253864" to="12438153" priority="-1" length="108.00">
        <lane id="15027623_0" index="0" speed="16.67" length="108.00" shape="3358.47,5190.46 3347.45,5087.43"/>
        <lane id="15027623_1" index="1" speed="16.67" length="108.00" shape="3361.75,5190.11 3350.73,5087.08"/>
        <lane id="15027623_2" index="2" speed="16.67" length="108.00" shape="3365.03,5189.76 3354.01,5086.73"/>
        <lane id="15027623_3" index="3" speed="16.67" length="108.00" shape="3368.31,5189.41 3357.29,5086.38"/>
    </edge>
    <edge id="15027673" from="12438177" to="237105" priority="-1" length="150.00">
        <lane id="15027673_0" index="0" speed="16.67" length="150.00" shape="3471.36,4741.54 3340.60,4687.30"/>
        <lane id="15027673_1" index="1" speed="16.67" length="150.00" shape="3472.62,4738.49 3341.86,4684.26"/>
        <lane id="15027673_2" index="2" speed="16.67" length="150.00" shape="3473.89,4735.45 3343.12,4681.21"/>
        <lane id="15027673_3" index="3" speed="16.67" length="150.00" shape="3475.15,4732.40 3344.39,4678.16"/>
    </edge>
    <edge id="15027675" from="237105" to="12438178" priority="-1" length="203.00">
        <lane id="15027675_0" index="0" speed="16.67" length="203.00" shape="3349.44,4665.94 3531.69,4741.33"/>
        <lane id="15027675_1" index="1" speed="16.67" length="203.00" shape="3348.18,4668.98 3530.43,4744.38"/>
        <lane id="15027675_2" index="2" speed="16.67" length="203.00" shape="3346.92,4672.03 3529.16,4747.43"/>
        <lane id="15027675_3" index="3" speed="16.67" length="203.00" shape="3345.66,4675.08 3527.90,4750.48"/>
    </edge>
    <edge id="153805" from="237105" to="257970" priority="-1" length="150.00">
        <lane id="153805_0" index="0" speed="16.67" length="150.00" shape="3292.08,4667.78 3153.58,4613.81"/>
        <lane id="153805_1" index="1" speed="16.67" length="150.00" shape="3293.28,4664.70 3154.77,4610.74"/>
        <lane id="153805_2" index="2" speed="16.67" length="150.00" shape="3294.47,4661.63 3155.97,4607.66"/>
        <lane id="153805_3" index="3" speed="16.67" length="150.00" shape="3295.67,4658.55 3157.17,4604.59"/>
    </edge>
    <edge id="153812" from="257970" to="237105" priority="-1" length="150.00">
        <lane id="153812_0" index="0" speed="16.67" length="150.00" shape="3161.96,4592.29 3300.46,4646.25"/>
        <lane id="153812_1" index="1" speed="16.67" length="150.00" shape="3160.77,4595.36 3299.27,4649.33"/>
        <lane id="153812_2" index="2" speed="16.67" length="150.00" shape="3159.57,4598.44 3298.07,4652.40"/>
        <lane id="153812_3" index="3" speed="16.67" length="150.00" shape="3158.37,4601.51 3296.87,4655.48"/>
    </edge>
    <edge id="153833" from="237105" to="258259" priority="-1" length="150.00">
        <lane id="153833_0" index="0" speed="16.67" length="150.00" shape="3303.95,4643.71 3295.18,4497.10"/>
        <lane id="153833_1" index="1" speed="16.67" length="150.00" shape="3307.24,4643.52 3298.47,4496.90"/>
        <lane id="153833_2" index="2" speed="16.67" length="150.00" shape="3310.54,4643.32 3301.76,4496.70"/>
        <lane id="153833_3" index="3" speed="16.67" length="150.00" shape="3313.83,4643.12 3305.06,4496.51"/>
        <lane id="153833_4" index="4" speed="16.67" length="150.00" shape="3317.13,4642.92 3308.35,4496.31"/>
    </edge>
    <edge id="153839" from="258259" to="237105" priority="-1" length="146.88">
        <lane id="153839_0" index="0" speed="16.67" length="146.88" shape="3324.82,4495.32 3333.60,4641.94"/>
        <lane id="153839_1" index="1" speed="16.67" length="146.88" shape="3321.53,4495.52 3330.30,4642.14"/>
        <lane id="153839_2" index="2" speed="16.67" length="146.88" shape="3318.24,4495.72 3327.01,4642.33"/>
        <lane id="153839_3" index="3" speed="16.67" length="146.88" shape="3314.94,4495.91 3323.71,4642.53"/>
        <lane id="153839_4" index="4" speed="16.67" length="146.88" shape="3311.65,4496.11 3320.42,4642.73"/>
    </edge>
    <edge id="160163" from="253864" to="245467" priority="-1" length="207.00">
        <lane id="160163_0" index="0" speed="13.89" length="207.00" shape="3386.57,5193.76 3522.48,5218.89"/>
        <lane id="160163_1" index="1" speed="13.89" length="207.00" shape="3385.97,5197.00 3521.88,5222.14"/>
    </edge>
    <edge id="160170" from="258034" to="253866" priority="-1" length="150.00">
        <lane id="160170_0" index="0" speed="13.89" length="150.00" shape="3553.58,5411.66 3411.88,5413.59"/>
    </edge>
    <edge id="168184" from="253866" to="253864" priority="-1" length="223.00">
        <lane id="168184_0" index="0" speed="16.67" length="223.00" shape="3384.89,5410.50 3359.86,5202.75"/>
        <lane id="168184_1" index="1" speed="16.67" length="223.00" shape="3388.16,5410.11 3363.13,5202.35"/>
        <lane id="168184_2" index="2" speed="16.67" length="223.00" shape="3391.44,5409.72 3366.41,5201.96"/>
        <lane id="168184_3" index="3" speed="16.67" length="223.00" shape="3394.72,5409.32 3369.69,5201.56"/>
    </edge>
    <edge id="168186" from="253864" to="253866" priority="-1" length="222.00">
        <lane id="168186_0" index="0" speed="16.67" length="222.00" shape="3382.79,5199.98 3407.82,5407.74"/>
        <lane id="168186_1" index="1" speed="16.67" length="222.00" shape="3379.52,5200.38 3404.55,5408.14"/>
        <lane id="168186_2" index="2" speed="16.67" length="222.00" shape="3376.24,5200.77 3401.27,5408.53"/>
        <lane id="168186_3" index="3" speed="16.67" length="222.00" shape="3372.96,5201.17 3397.99,5408.93"/>
    </edge>
    <edge id="173921" from="256689" to="257974" priority="-1" length="150.00">
        <lane id="173921_0" index="0" speed="13.89" length="150.00" shape="3491.30,4938.40 3353.40,4914.32"/>
        <lane id="173921_1" index="1" speed="13.89" length="150.00" shape="3491.87,4935.15 3353.97,4911.07"/>
    </edge>
    <edge id="173927" from="253866" to="256691" priority="-1" length="190.00">
        <lane id="173927_0" index="0" speed="13.89" length="190.00" shape="3381.98,5413.78 3241.81,5413.63"/>
    </edge>
    <edge id="184833" from="257974" to="53690222" priority="-1">
        <lane id="184833_0" index="0" speed="16.67" length="75.33" shape="3324.99,4896.23 3318.30,4821.20"/>
        <lane id="184833_1" index="1" speed="16.67" length="75.33" shape="3328.28,4895.93 3321.59,4820.90"/>
        <lane id="184833_2" index="2" speed="16.67" length="75.33" shape="3331.56,4895.64 3324.87,4820.61"/>
        <lane id="184833_3" index="3" speed="16.67" length="75.33" shape="3334.85,4895.35 3328.16,4820.32"/>
        <lane id="184833_4" index="4" speed="16.67" length="75.33" shape="3338.14,4895.05 3331.45,4820.02"/>
    </edge>
    <edge id="184839" from="250161" to="257974" priority="-1" length="150.00">
        <lane id="184839_0" index="0" speed="16.67" length="150.00" shape="3335.90,4751.49 3348.05,4894.17"/>
        <lane id="184839_1" index="1" speed="16.67" length="150.00" shape="3332.61,4751.77 3344.76,4894.46"/>
        <lane id="184839_2" index="2" speed="16.67" length="150.00" shape="3329.32,4752.05 3341.47,4894.76"/>
    </edge>
    <edge id="184840" from="237105" to="250161" priority="-1" length="74.00">
        <lane id="184840_0" index="0" speed="16.67" length="74.00" shape="3337.14,4689.84 3342.21,4747.92"/>
        <lane id="184840_1" index="1" speed="16.67" length="74.00" shape="3333.85,4690.13 3338.93,4748.21"/>
        <lane id="184840_2" index="2" speed="16.67" length="74.00" shape="3330.57,4690.42 3335.64,4748.49"/>
        <lane id="184840_3" index="3" speed="16.67" length="74.00" shape="3327.28,4690.70 3332.35,4748.78"/>
        <lane id="184840_4" index="4" speed="16.67" length="74.00" shape="3323.99,4690.99 3329.06,4749.07"/>
    </edge>
    <edge id="187445" from="237121" to="12438177" priority="-1">
        <lane id="187445_0" index="0" speed="16.67" length="206.69" shape="3666.24,4819.00 3475.39,4739.64"/>
        <lane id="187445_1" index="1" speed="16.67" length="206.69" shape="3667.51,4815.95 3476.66,4736.60"/>
        <lane id="187445_2" index="2" speed="16.67" length="206.69" shape="3668.78,4812.90 3477.92,4733.55"/>
    </edge>
    <edge id="20452469" from="257974" to="15452347" priority="-1" length="150.00">
        <lane id="20452469_0" index="0" speed="11.11" length="150.00" shape="3320.33,4909.01 3175.83,4887.15"/>
        <lane id="20452469_1" index="1" speed="11.11" length="150.00" shape="3320.82,4905.75 3176.32,4883.89"/>
    </edge>
    <edge id="20452470" from="15452348" to="257974" priority="-1" length="150.00" shape="3356.80,5064.83 3347.71,4976.82 3340.87,4907.11">
        <lane id="20452470_0" index="0" speed="16.67" length="150.00" shape="3345.29,5065.86 3336.22,4977.98 3330.46,4919.33"/>