<?xml version="1.0" encoding="UTF-8"?>

<!-- generated on 04/21/20 13:16:48 by Eclipse SUMO netgenerate Version 1.3.1
<configuration xmlns:xsi="http://www.w3.org/2001/XMLSchema-instance" xsi:noNamespaceSchemaLocation="http://sumo.dlr.de/xsd/netgenerateConfiguration.xsd">

    <grid_network>
        <grid value="true"/>
        <grid.x-number value="3"/>
        <grid.y-number value="3"/>
        <grid.x-length value="1000"/>
        <grid.y-length value="1000"/>
        <grid.attach-length value="1000"/>
    </grid_network>

    <output>
        <output-file value="E:\Traffic_Control_Benchmark\sumocfg\3X3grid\3X3grid.net.xml"/>
        <plain-output-prefix value="E:\Traffic_Control_Benchmark\sumocfg\3X3grid\3X3grid"/>
    </output>

    <building_defaults>
        <default.lanenumber value="2"/>
    </building_defaults>

    <tls_building>
        <tls.guess value="true"/>
        <tls.default-type value="static"/>
    </tls_building>

    <junctions>
        <check-lane-foes.all value="true"/>
    </junctions>

</configuration>
-->

<connections version="1.3" xmlns:xsi="http://www.w3.org/2001/XMLSchema-instance" xsi:noNamespaceSchemaLocation="http://sumo.dlr.de/xsd/connections_file.xsd">
    <connection from="A0A1" to="A1B1" fromLane="0" toLane="0"/>
    <connection from="A0A1" to="A1A2" fromLane="0" toLane="0"/>
    <connection from="A0A1" to="A1A2" fromLane="1" toLane="1"/>
    <connection from="A0A1" to="A1left1" fromLane="1" toLane="1"/>
    <connection from="A0A1" to="A1A0" fromLane="1" toLane="1"/>

    <connection from="A0B0" to="B0bottom1" fromLane="0" toLane="0"/>
    <connection from="A0B0" to="B0C0" fromLane="0" toLane="0"/>
    <connection from="A0B0" to="B0C0" fromLane="1" toLane="1"/>
    <connection from="A0B0" to="B0B1" fromLane="1" toLane="1"/>
    <connection from="A0B0" to="B0A0" fromLane="1" toLane="1"/>

    <connection from="A0bottom0" to="bottom0A0" fromLane="1" toLane="1"/>

    <connection from="A0left0" to="left0A0" fromLane="1" toLane="1"/>

    <connection from="A1A0" to="A0left0" fromLane="0" toLane="0"/>
    <connection from="A1A0" to="A0bottom0" fromLane="0" toLane="0"/>
    <connection from="A1A0" to="A0bottom0" fromLane="1" toLane="1"/>
    <connection from="A1A0" to="A0B0" fromLane="1" toLane="1"/>
    <connection from="A1A0" to="A0A1" fromLane="1" toLane="1"/>

    <connection from="A1A2" to="A2B2" fromLane="0" toLane="0"/>
    <connection from="A1A2" to="A2top0" fromLane="0" toLane="0"/>
    <connection from="A1A2" to="A2top0" fromLane="1" toLane="1"/>
    <connection from="A1A2" to="A2left2" fromLane="1" toLane="1"/>
    <connection from="A1A2" to="A2A1" fromLane="1" toLane="1"/>

    <connection from="A1B1" to="B1B0" fromLane="0" toLane="0"/>
    <connection from="A1B1" to="B1C1" fromLane="0" toLane="0"/>
    <connection from="A1B1" to="B1C1" fromLane="1" toLane="1"/>
    <connection from="A1B1" to="B1B2" fromLane="1" toLane="1"/>
    <connection from="A1B1" to="B1A1" fromLane="1" toLane="1"/>

    <connection from="A1left1" to="left1A1" fromLane="1" toLane="1"/>

    <connection from="A2A1" to="A1left1" fromLane="0" toLane="0"/>
    <connection from="A2A1" to="A1A0" fromLane="0" toLane="0"/>
    <connection from="A2A1" to="A1A0" fromLane="1" toLane="1"/>
    <connection from="A2A1" to="A1B1" fromLane="1" toLane="1"/>
    <connection from="A2A1" to="A1A2" fromLane="1" toLane="1"/>

    <connection from="A2B2" to="B2B1" fromLane="0" toLane="0"/>
    <connection from="A2B2" to="B2C2" fromLane="0" toLane="0"/>
    <connection from="A2B2" to="B2C2" fromLane="1" toLane="1"/>
    <connection from="A2B2" to="B2top1" fromLane="1" toLane="1"/>
    <connection from="A2B2" to="B2A2" fromLane="1" toLane="1"/>

    <connection from="A2left2" to="left2A2" fromLane="1" toLane="1"/>

    <connection from="A2top0" to="top0A2" fromLane="1" toLane="1"/>

    <connection from="B0A0" to="A0A1" fromLane="0" toLane="0"/>
    <connection from="B0A0" to="A0left0" fromLane="0" toLane="0"/>
    <connection from="B0A0" to="A0left0" fromLane="1" toLane="1"/>
    <connection from="B0A0" to="A0bottom0" fromLane="1" toLane="1"/>
    <connection from="B0A0" to="A0B0" fromLane="1" toLane="1"/>

    <connection from="B0B1" to="B1C1" fromLane="0" toLane="0"/>
    <connection from="B0B1" to="B1B2" fromLane="0" toLane="0"/>
    <connection from="B0B1" to="B1B2" fromLane="1" toLane="1"/>
    <connection from="B0B1" to="B1A1" fromLane="1" toLane="1"/>
    <connection from="B0B1" to="B1B0" fromLane="1" toLane="1"/>

    <connection from="B0C0" to="C0bottom2" fromLane="0" toLane="0"/>
    <connection from="B0C0" to="C0right0" fromLane="0" toLane="0"/>
    <connection from="B0C0" to="C0right0" fromLane="1" toLane="1"/>
    <connection from="B0C0" to="C0C1" fromLane="1" toLane="1"/>
    <connection from="B0C0" to="C0B0" fromLane="1" toLane="1"/>

    <connection from="B0bottom1" to="bottom1B0" fromLane="1" toLane="1"/>

    <connection from="B1A1" to="A1A2" fromLane="0" toLane="0"/>
    <connection from="B1A1" to="A1left1" fromLane="0" toLane="0"/>
    <connection from="B1A1" to="A1left1" fromLane="1" toLane="1"/>
    <connection from="B1A1" to="A1A0" fromLane="1" toLane="1"/>
    <connection from="B1A1" to="A1B1" fromLane="1" toLane="1"/>

    <connection from="B1B0" to="B0A0" fromLane="0" toLane="0"/>
    <connection from="B1B0" to="B0bottom1" fromLane="0" toLane="0"/>
    <connection from="B1B0" to="B0bottom1" fromLane="1" toLane="1"/>
    <connection from="B1B0" to="B0C0" fromLane="1" toLane="1"/>
    <connection from="B1B0" to="B0B1" fromLane="1" toLane="1"/>

    <connection from="B1B2" to="B2C2" fromLane="0" toLane="0"/>
    <connection from="B1B2" to="B2top1" fromLane="0" toLane="0"/>
    <connection from="B1B2" to="B2top1" fromLane="1" toLane="1"/>
    <connection from="B1B2" to="B2A2" fromLane="1" toLane="1"/>
    <connection from="B1B2" to="B2B1" fromLane="1" toLane="1"/>

    <connection from="B1C1" to="C1C0" fromLane="0" toLane="0"/>
    <connection from="B1C1" to="C1right1" fromLane="0" toLane="0"/>
    <connection from="B1C1" to="C1right1" fromLane="1" toLane="1"/>
    <connection from="B1C1" to="C1C2" fromLane="1" toLane="1"/>
    <connection from="B1C1" to="C1B1" fromLane="1" toLane="1"/>

    <connection from="B2A2" to="A2top0" fromLane="0" toLane="0"/>
    <connection from="B2A2" to="A2left2" fromLane="0" toLane="0"/>
    <connection from="B2A2" to="A2left2" fromLane="1" toLane="1"/>
    <connection from="B2A2" to="A2A1" fromLane="1" toLane="1"/>
    <connection from="B2A2" to="A2B2" fromLane="1" toLane="1"/>

    <connection from="B2B1" to="B1A1" fromLane="0" toLane="0"/>
    <connection from="B2B1" to="B1B0" fromLane="0" toLane="0"/>
    <connection from="B2B1" to="B1B0" fromLane="1" toLane="1"/>
    <connection from="B2B1" to="B1C1" fromLane="1" toLane="1"/>
    <connection from="B2B1" to="B1B2" fromLane="1" toLane="1"/>

    <connection from="B2C2" to="C2C1" fromLane="0" toLane="0"/>
    <connection from="B2C2" to="C2right2" fromLane="0" toLane="0"/>
    <connection from="B2C2" to="C2right2" fromLane="1" toLane="1"/>
    <connection from="B2C2" to="C2top2" fromLane="1" toLane="1"/>
    <connection from="B2C2" to="C2B2" fromLane="1" toLane="1"/>

    <connection from="B2top1" to="top1B2" fromLane="1" toLane="1"/>

    <connection from="C0B0" to="B0B1" fromLane="0" toLane="0"/>
    <connection from="C0B0" to="B0A0" fromLane="0" toLane="0"/>
    <connection from="C0B0" to="B0A0" fromLane="1" toLane="1"/>
    <connection from="C0B0" to="B0bottom1" fromLane="1" toLane="1"/>
    <connection from="C0B0" to="B0C0" fromLane="1" toLane="1"/>

    <connection from="C0C1" to="C1right1" fromLane="0" toLane="0"/>
    <connection from="C0C1" to="C1C2" fromLane="0" toLane="0"/>
    <connection from="C0C1" to="C1C2" fromLane="1" toLane="1"/>
    <connection from="C0C1" to="C1B1" fromLane="1" toLane="1"/>
    <connection from="C0C1" to="C1C0" fromLane="1" toLane="1"/>

    <connection from="C0bottom2" to="bottom2C0" fromLane="1" toLane="1"/>

    <connection from="C0right0" to="right0C0" fromLane="1" toLane="1"/>

    <connection from="C1B1" to="B1B2" fromLane="0" toLane="0"/>
    <connection from="C1B1" to="B1A1" fromLane="0" toLane="0"/>
    <connection from="C1B1" to="B1A1" fromLane="1" toLane="1"/>
    <connection from="C1B1" to="B1B0" fromLane="1" toLane="1"/>
    <connection from="C1B1" to="B1C1" fromLane="1" toLane="1"/>

    <connection from="C1C0" to="C0B0" fromLane="0" toLane="0"/>
    <connection from="C1C0" to="C0bottom2" fromLane="0" toLane="0"/>
    <connection from="C1C0" to="C0bottom2" fromLane="1" toLane="1"/>
    <connection from="C1C0" to="C0right0" fromLane="1" toLane="1"/>
    <connection from="C1C0" to="C0C1" fromLane="1" toLane="1"/>

    <connection from="C1C2" to="C2right2" fromLane="0" toLane="0"/>
    <connection from="C1C2" to="C2top2" fromLane="0" toLane="0"/>
    <connection from="C1C2" to="C2top2" fromLane="1" toLane="1"/>
    <connection from="C1C2" to="C2B2" fromLane="1" toLane="1"/>
    <connection from="C1C2" to="C2C1" fromLane="1" toLane="1"/>

    <connection from="C1right1" to="right1C1" fromLane="1" toLane="1"/>

    <connection from="C2B2" to="B2top1" fromLane="0" toLane="0"/>
    <connection from="C2B2" to="B2A2" fromLane="0" toLane="0"/>
    <connection from="C2B2" to="B2A2" fromLane="1" toLane="1"/>
    <connection from="C2B2" to="B2B1" fromLane="1" toLane="1"/>
    <connection from="C2B2" to="B2C2" fromLane="1" toLane="1"/>

    <connection from="C2C1" to="C1B1" fromLane="0" toLane="0"/>
    <connection from="C2C1" to="C1C0" fromLane="0" toLane="0"/>
    <connection from="C2C1" to="C1C0" fromLane="1" toLane="1"/>
    <connection from="C2C1" to="C1right1" fromLane="1" toLane="1"/>
    <connection from="C2C1" to="C1C2" fromLane="1" toLane="1"/>

    <connection from="C2right2" to="right2C2" fromLane="1" toLane="1"/>

    <connection from="C2top2" to="top2C2" fromLane="1" toLane="1"/>

    <connection from="bottom0A0" to="A0B0" fromLane="0" toLane="0"/>
    <connection from="bottom0A0" to="A0A1" fromLane="0" toLane="0"/>
    <connection from="bottom0A0" to="A0A1" fromLane="1" toLane="1"/>
    <connection from="bottom0A0" to="A0left0" fromLane="1" toLane="1"/>
    <connection from="bottom0A0" to="A0bottom0" fromLane="1" toLane="1"/>

    <connection from="bottom1B0" to="B0C0" fromLane="0" toLane="0"/>
    <connection from="bottom1B0" to="B0B1" fromLane="0" toLane="0"/>
    <connection from="bottom1B0" to="B0B1" fromLane="1" toLane="1"/>
    <connection from="bottom1B0" to="B0A0" fromLane="1" toLane="1"/>
    <connection from="bottom1B0" to="B0bottom1" fromLane="1" toLane="1"/>

    <connection from="bottom2C0" to="C0right0" fromLane="0" toLane="0"/>
    <connection from="bottom2C0" to="C0C1" fromLane="0" toLane="0"/>
    <connection from="bottom2C0" to="C0C1" fromLane="1" toLane="1"/>
    <connection from="bottom2C0" to="C0B0" fromLane="1" toLane="1"/>
    <connection from="bottom2C0" to="C0bottom2" fromLane="1" toLane="1"/>

    <connection from="left0A0" to="A0bottom0" fromLane="0" toLane="0"/>
    <connection from="left0A0" to="A0B0" fromLane="0" toLane="0"/>
    <connection from="left0A0" to="A0B0" fromLane="1" toLane="1"/>
    <connection from="left0A0" to="A0A1" fromLane="1" toLane="1"/>
    <connection from="left0A0" to="A0left0" fromLane="1" toLane="1"/>

    <connection from="left1A1" to="A1A0" fromLane="0" toLane="0"/>
    <connection from="left1A1" to="A1B1" fromLane="0" toLane="0"/>
    <connection from="left1A1" to="A1B1" fromLane="1" toLane="1"/>
    <connection from="left1A1" to="A1A2" fromLane="1" toLane="1"/>
    <connection from="left1A1" to="A1left1" fromLane="1" toLane="1"/>

    <connection from="left2A2" to="A2A1" fromLane="0" toLane="0"/>
    <connection from="left2A2" to="A2B2" fromLane="0" toLane="0"/>
    <connection from="left2A2" to="A2B2" fromLane="1" toLane="1"/>
    <connection from="left2A2" to="A2top0" fromLane="1" toLane="1"/>
    <connection from="left2A2" to="A2left2" fromLane="1" toLane="1"/>

    <connection from="right0C0" to="C0C1" fromLane="0" toLane="0"/>
    <connection from="right0C0" to="C0B0" fromLane="0" toLane="0"/>
    <connection from="right0C0" to="C0B0" fromLane="1" toLane="1"/>
    <connection from="right0C0" to="C0bottom2" fromLane="1" toLane="1"/>
    <connection from="right0C0" to="C0right0" fromLane="1" toLane="1"/>

    <connection from="right1C1" to="C1C2" fromLane="0" toLane="0"/>
    <connection from="right1C1" to="C1B1" fromLane="0" toLane="0"/>
    <connection from="right1C1" to="C1B1" fromLane="1" toLane="1"/>
    <connection from="right1C1" to="C1C0" fromLane="1" toLane="1"/>
    <connection from="right1C1" to="C1right1" fromLane="1" toLane="1"/>

    <connection from="right2C2" to="C2top2" fromLane="0" toLane="0"/>
    <connection from="right2C2" to="C2B2" fromLane="0" toLane="0"/>
    <connection from="right2C2" to="C2B2" fromLane="1" toLane="1"/>
    <connection from="right2C2" to="C2C1" fromLane="1" toLane="1"/>
    <connection from="right2C2" to="C2right2" fromLane="1" toLane="1"/>

    <connection from="top0A2" to="A2left2" fromLane="0" toLane="0"/>
    <connection from="top0A2" to="A2A1" fromLane="0" toLane="0"/>
    <connection from="top0A2" to="A2A1" fromLane="1" toLane="1"/>
    <connection from="top0A2" to="A2B2" fromLane="1" toLane="1"/>
    <connection from="top0A2" to="A2top0" fromLane="1" toLane="1"/>

    <connection from="top1B2" to="B2A2" fromLane="0" toLane="0"/>
    <connection from="top1B2" to="B2B1" fromLane="0" toLane="0"/>
    <connection from="top1B2" to="B2B1" fromLane="1" toLane="1"/>
    <connection from="top1B2" to="B2C2" fromLane="1" toLane="1"/>
    <connection from="top1B2" to="B2top1" fromLane="1" toLane="1"/>

    <connection from="top2C2" to="C2B2" fromLane="0" toLane="0"/>
    <connection from="top2C2" to="C2C1" fromLane="0" toLane="0"/>
    <connection from="top2C2" to="C2C1" fromLane="1" toLane="1"/>
    <connection from="top2C2" to="C2right2" fromLane="1" toLane="1"/>
    <connection from="top2C2" to="C2top2" fromLane="1" toLane="1"/>

</connections>
