<?xml version="1.0" encoding="UTF-8"?>
<additional>
    <tlLogic id="A0" type="static" programID="a" offset="0">
        <phase duration="5" state="GGGggrrrrrGGGggrrrrr"/>
        <phase duration="3" state="yyyyyrrrrryyyyyrrrrr"/>
        <phase duration="8" state="rrrrrGGGggrrrrrGGGgg"/>
        <phase duration="3" state="rrrrryyyyyrrrrryyyyy"/>
    </tlLogic>
    <tlLogic id="A1" type="static" programID="a" offset="0">
        <phase duration="8" state="GGGggrrrrrGGGggrrrrr"/>
        <phase duration="3" state="yyyyyrrrrryyyyyrrrrr"/>
        <phase duration="5" state="rrrrrGGGggrrrrrGGGgg"/>
        <phase duration="3" state="rrrrryyyyyrrrrryyyyy"/>
    </tlLogic>
    <tlLogic id="A2" type="static" programID="a" offset="0">
        <phase duration="9" state="GGGggrrrrrGGGggrrrrr"/>
        <phase duration="3" state="yyyyyrrrrryyyyyrrrrr"/>
        <phase duration="4" state="rrrrrGGGggrrrrrGGGgg"/>
        <phase duration="3" state="rrrrryyyyyrrrrryyyyy"/>
    </tlLogic>
    <tlLogic id="B0" type="static" programID="a" offset="0">
        <phase duration="4" state="GGGggrrrrrGGGggrrrrr"/>
        <phase duration="3" state="yyyyyrrrrryyyyyrrrrr"/>
        <phase duration="9" state="rrrrrGGGggrrrrrGGGgg"/>
        <phase duration="3" state="rrrrryyyyyrrrrryyyyy"/>
    </tlLogic>
    <tlLogic id="B1" type="static" programID="a" offset="0">
        <phase duration="6" state="GGGggrrrrrGGGggrrrrr"/>
        <phase duration="3" state="yyyyyrrrrryyyyyrrrrr"/>
        <phase duration="6" state="rrrrrGGGggrrrrrGGGgg"/>
        <phase duration="3" state="rrrrryyyyyrrrrryyyyy"/>
    </tlLogic>
    <tlLogic id="B2" type="static" programID="a" offset="0">
        <phase duration="5" state="GGGggrrrrrGGGggrrrrr"/>
        <phase duration="3" state="yyyyyrrrrryyyyyrrrrr"/>
        <phase duration="8" state="rrrrrGGGggrrrrrGGGgg"/>
        <phase duration="3" state="rrrrryyyyyrrrrryyyyy"/>
    </tlLogic>
    <tlLogic id="C0" type="static" programID="a" offset="0">
        <phase duration="9" state="GGGggrrrrrGGGggrrrrr"/>
        <phase duration="3" state="yyyyyrrrrryyyyyrrrrr"/>
        <phase duration="4" state="rrrrrGGGggrrrrrGGGgg"/>
        <phase duration="3" state="rrrrryyyyyrrrrryyyyy"/>
    </tlLogic>
    <tlLogic id="C1" type="static" programID="a" offset="0">
        <phase duration="8" state="GGGggrrrrrGGGggrrrrr"/>
        <phase duration="3" state="yyyyyrrrrryyyyyrrrrr"/>
        <phase duration="5" state="rrrrrGGGggrrrrrGGGgg"/>
        <phase duration="3" state="rrrrryyyyyrrrrryyyyy"/>
    </tlLogic>
    <tlLogic id="C2" type="static" programID="a" offset="0">
        <phase duration="5" state="GGGggrrrrrGGGggrrrrr"/>
        <phase duration="3" state="yyyyyrrrrryyyyyrrrrr"/>
        <phase duration="8" state="rrrrrGGGggrrrrrGGGgg"/>
        <phase duration="3" state="rrrrryyyyyrrrrryyyyy"/>
    </tlLogic>
</additional>
